110

Mg     -0.080650000000000     -0.473010000000000     -0.895860000000000
C       0.164910000000000      2.497220000000000      0.501100000000000
C      -1.987830000000000      1.551520000000000      0.949010000000000
O      -0.805690000000000      1.516540000000000      0.179300000000000
C       0.500680000000000      2.626770000000000      1.988550000000000
C      -2.824870000000000      2.789840000000000      0.669540000000000
H       1.099090000000000      2.173160000000000      0.001970000000000
H      -0.102500000000000      3.477500000000000      0.057670000000000
H      -2.588090000000000      0.671170000000000      0.649670000000000
H      -1.792550000000000      1.402150000000000      2.029150000000000
H      -3.793150000000000      2.700400000000000      1.203990000000000
H      -3.017410000000000      2.881410000000000     -0.419470000000000
H      -2.297770000000000      3.695640000000000      1.027350000000000
H       0.750030000000000      1.643410000000000      2.419660000000000
H      -0.345960000000000      3.074820000000000      2.546340000000000
H       1.385900000000000      3.282330000000000      2.110470000000000
H      -1.392890000000000      0.269310000000000     -3.094100000000000
C      -2.315590000000000     -1.658870000000000     -2.601390000000000
C      -1.091470000000000     -0.738180000000000     -2.743480000000000
C      -3.355450000000000     -1.218170000000000     -1.551950000000000
H      -2.810490000000000     -1.735800000000000     -3.591690000000000
H      -1.960110000000000     -2.669190000000000     -2.305810000000000
H      -4.185810000000000     -1.960110000000000     -1.550360000000000
H      -2.898570000000000     -1.232770000000000     -0.542040000000000
C      -3.960240000000000      0.158950000000000     -1.824700000000000
H      -0.366600000000000     -1.174240000000000     -3.457140000000000
H      -3.177650000000000      0.940830000000000     -1.789040000000000
H      -4.453800000000000      0.179270000000000     -2.818250000000000
H      -4.718770000000000      0.395440000000000     -1.046330000000000
C      -1.153390000000000     -1.286630000000000      2.798390000000000
C      -1.281660000000000     -2.192480000000000      1.770980000000000
C      -0.098290000000000     -2.174010000000000      1.053740000000000
C       0.713590000000000     -1.268770000000000      1.610830000000000
N       0.113170000000000     -0.689240000000000      2.746160000000000
C       2.069000000000000     -0.864060000000000      1.094080000000000
N       1.919370000000000     -0.327070000000000     -0.264320000000000
C       3.135880000000000      0.000200000000000     -1.046770000000000
H      -2.162220000000000     -2.784230000000000      1.560410000000000
H      -1.909960000000000     -1.049180000000000      3.532570000000000
H       0.110880000000000     -2.750840000000000      0.160690000000000
H       2.735990000000000     -1.745810000000000      1.110060000000000
H       2.475020000000000     -0.074630000000000      1.760960000000000
C       3.924050000000000     -1.279490000000000     -1.388200000000000
C       2.710950000000000      0.683060000000000     -2.357160000000000
C       4.051480000000000      0.972450000000000     -0.264140000000000
H       3.293860000000000     -1.978030000000000     -1.977010000000000
H       4.831400000000000     -1.031920000000000     -1.981890000000000
H       4.271610000000000     -1.799460000000000     -0.472850000000000
H       2.171740000000000      1.631830000000000     -2.152010000000000
H       3.600830000000000      0.920470000000000     -2.982920000000000
H       2.042040000000000      0.017400000000000     -2.941710000000000
H       3.507750000000000      1.906410000000000     -0.007050000000000
H       4.423330000000000      0.513510000000000      0.675530000000000
H       4.942540000000000      1.250110000000000     -0.869260000000000
Na     -3.660440000000000     -0.765440000000000     10.440610000000000
C      -5.754050000000000     -0.005740000000000     12.814650000000000
C      -6.357840000000000     -1.993860000000000     11.819000000000001
O      -5.998960000000000     -0.649270000000000     11.582310000000000
C      -5.373920000000000      1.445070000000000     12.553730000000000
C      -6.606990000000000     -2.686240000000000     10.486490000000000
H      -6.668460000000000     -0.007630000000000     13.450810000000001
H      -4.904870000000000     -0.488190000000000     13.350160000000001
H      -5.534930000000000     -2.539130000000000     12.335120000000000
H      -7.298170000000000     -2.051630000000000     12.413410000000001
H      -5.686860000000000     -2.662320000000000      9.864570000000001
H      -6.893730000000000     -3.744890000000000     10.661550000000000
H      -7.429560000000000     -2.177360000000000      9.940000000000000
H      -6.200730000000000      1.968800000000000     12.028480000000000
H      -5.177940000000000      1.961000000000000     13.517680000000000
H      -4.457430000000000      1.493890000000000     11.928100000000001
Na     -8.235360000000000      0.458280000000000     10.732870000000000
Mg     -2.643180000000000     -4.482110000000000      7.074320000000000
H      -3.588540000000000     -6.526920000000000      4.866490000000000
C      -1.423530000000000     -6.620140000000000      4.541990000000000
C      -2.693930000000000     -5.873360000000000      4.913130000000000
C      -1.151890000000000     -7.826870000000000      5.451290000000000
H      -1.530410000000000     -6.974440000000000      3.495580000000000
H      -0.560950000000000     -5.921830000000000      4.588480000000000
H      -2.004170000000000     -8.539339999999999      5.405430000000000
H      -0.246440000000000     -8.340109999999999      5.064330000000000
C      -0.888310000000000     -7.443650000000000      6.909130000000000
H      -2.831270000000000     -4.989760000000000      4.253020000000000
H      -1.794270000000000     -7.006030000000000      7.374780000000000
H      -0.609130000000000     -8.355100000000000      7.480780000000000
H      -0.050250000000000     -6.717520000000000      6.977880000000000
C      -3.939650000000000     -5.995160000000000      9.548040000000000
C      -3.784470000000000     -5.829730000000000     10.915690000000000
C      -2.866430000000000     -4.806380000000000     11.093730000000001
C      -2.485500000000000     -4.405890000000000      9.833589999999999
N      -3.152110000000000     -5.119830000000000      8.910290000000000
C      -1.487930000000000     -3.329170000000000      9.458660000000000
N      -1.194080000000000     -3.401270000000000      8.012219999999999
C      -0.216380000000000     -2.491970000000000      7.389410000000000
H      -4.284220000000000     -6.387750000000000     11.694450000000000
H      -4.591050000000000     -6.709760000000000      9.058550000000000
H      -2.506680000000000     -4.409610000000000     12.034590000000000
H      -1.926450000000000     -2.347380000000000      9.729250000000000
H      -0.557160000000000     -3.502050000000000     10.031350000000000
C       1.188760000000000     -2.773770000000000      7.956440000000000
C      -0.191320000000000     -2.762730000000000      5.875230000000000
C      -0.601790000000000     -1.021020000000000      7.627490000000000
H       1.467390000000000     -3.835800000000000      7.777660000000000
H       1.948060000000000     -2.124730000000000      7.470660000000000
H       1.231740000000000     -2.580460000000000      9.047219999999999
H      -1.188460000000000     -2.569320000000000      5.427190000000000
H       0.553710000000000     -2.107140000000000      5.371470000000000
H       0.083850000000000     -3.818440000000000      5.668970000000000
H      -1.613910000000000     -0.815030000000000      7.218270000000000
H      -0.597900000000000     -0.778380000000000      8.710060000000000
H       0.125990000000000     -0.343950000000000      7.129990000000000
