170

Mg     -0.226230000000000     -0.296810000000000     -0.337060000000000
C       2.022630000000000     -2.474690000000000      0.256370000000000
C      -0.156060000000000     -3.442810000000000      0.323560000000000
O       0.669600000000000     -2.344550000000000      0.646690000000000
C       2.226860000000000     -2.662300000000000     -1.246540000000000
C       0.148370000000000     -4.652180000000000      1.192050000000000
H       2.503780000000000     -1.515410000000000      0.519180000000000
H       2.556650000000000     -3.237190000000000      0.857200000000000
H      -1.198670000000000     -3.123650000000000      0.542130000000000
H      -0.147600000000000     -3.689820000000000     -0.757970000000000
H       0.150910000000000     -4.349780000000000      2.260470000000000
H      -0.629350000000000     -5.427160000000000      1.032180000000000
H       1.135720000000000     -5.076260000000000      0.920280000000000
H       1.609970000000000     -1.939570000000000     -1.816620000000000
H       3.295630000000000     -2.492510000000000     -1.494100000000000
H       1.961150000000000     -3.694340000000000     -1.548900000000000
H      -0.700770000000000     -0.308560000000000     -2.886910000000000
C      -2.633460000000000     -0.588040000000000     -1.915490000000000
C      -1.161170000000000     -0.906460000000000     -2.075440000000000
C      -2.828780000000000      0.877710000000000     -1.510870000000000
H      -3.127420000000000     -0.801200000000000     -2.883890000000000
H      -3.069890000000000     -1.238090000000000     -1.124290000000000
H      -2.420820000000000      1.039870000000000     -0.491420000000000
H      -2.288880000000000      1.549350000000000     -2.211030000000000
C      -4.305670000000000      1.251330000000000     -1.530630000000000
H      -0.997480000000000     -1.987670000000000     -2.255390000000000
H      -4.699540000000000      1.138820000000000     -2.563430000000000
H      -4.886510000000000      0.600260000000000     -0.843770000000000
H      -4.430340000000000      2.309260000000000     -1.217870000000000
C      -2.099310000000000      1.928580000000000      2.106110000000000
C      -2.077940000000000      0.553990000000000      2.241200000000000
C      -0.754500000000000      0.168670000000000      2.155480000000000
C      -0.051360000000000      1.279600000000000      1.950320000000000
N      -0.910540000000000      2.388550000000000      1.942860000000000
C       1.439470000000000      1.381480000000000      1.738700000000000
N       1.837820000000000      0.829090000000000      0.431920000000000
C       2.133130000000000      1.780170000000000     -0.667920000000000
H      -2.936540000000000     -0.098010000000000      2.356230000000000
H      -2.976660000000000      2.554040000000000      2.116140000000000
H      -0.379020000000000     -0.838950000000000      2.221420000000000
H       1.951980000000000      0.808460000000000      2.540460000000000
H       1.741840000000000      2.435610000000000      1.844620000000000
C       3.347180000000000      2.660770000000000     -0.314790000000000
C       2.495220000000000      0.951280000000000     -1.917470000000000
C       0.913810000000000      2.661820000000000     -1.012690000000000
H       4.206880000000000      2.022600000000000     -0.019190000000000
H       3.647260000000000      3.275280000000000     -1.190830000000000
H       3.125520000000000      3.367500000000000      0.507450000000000
H       1.633590000000000      0.332560000000000     -2.241900000000000
H       2.774300000000000      1.607340000000000     -2.771550000000000
H       3.348850000000000      0.272000000000000     -1.705570000000000
H       0.068040000000000      2.043570000000000     -1.381620000000000
H       0.570920000000000      3.238360000000000     -0.132140000000000
H       1.175750000000000      3.391950000000000     -1.809790000000000
Na     -2.169140000000000      7.738690000000000      6.109290000000000
C      -1.129730000000000      5.502540000000000      4.079500000000000
C       0.091190000000000      5.183670000000000      6.056420000000000
O      -0.527390000000000      6.123260000000000      5.198480000000000
C      -2.572190000000000      5.113530000000000      4.386460000000000
C       1.547900000000000      4.953000000000000      5.662530000000000
H      -1.136870000000000      6.236780000000000      3.246360000000000
H      -0.551590000000000      4.625360000000000      3.712220000000000
H       0.067240000000000      5.599820000000000      7.086250000000000
H      -0.457410000000000      4.216700000000000      6.100370000000000
H       2.117270000000000      5.904720000000000      5.704780000000000
H       2.010570000000000      4.233890000000000      6.370300000000000
H       1.615620000000000      4.535190000000000      4.636890000000000
H      -3.156760000000000      6.010110000000000      4.680850000000000
H      -3.035540000000000      4.667180000000000      3.483110000000000
H      -2.610570000000000      4.370440000000000      5.208740000000000
C      -3.291790000000000      5.490530000000000      8.337249999999999
C      -4.208670000000000      7.653560000000000      8.748070000000000
O      -3.259660000000000      6.875250000000000      8.039870000000001
C      -4.606440000000000      4.807970000000000      7.958030000000000
C      -3.994270000000000      7.651090000000000     10.261450000000000
H      -2.498160000000000      5.019090000000000      7.720330000000000
H      -3.007680000000000      5.288230000000000      9.390180000000001
H      -4.072330000000000      8.702400000000001      8.406790000000001
H      -5.250610000000000      7.386820000000000      8.475350000000001
H      -2.949060000000000      7.941620000000000     10.497960000000001
H      -4.687150000000000      8.380670000000000     10.730670000000000
H      -4.212400000000000      6.652970000000000     10.692100000000000
H      -4.846240000000000      5.004890000000000      6.891950000000000
H      -4.504340000000000      3.712480000000000      8.107480000000001
H      -5.438450000000000      5.158970000000000      8.601160000000000
Na      1.101350000000000      7.823510000000000      4.783180000000000
C      -0.968150000000000     10.377420000000001      5.267700000000000
C       0.168230000000000      9.787800000000001      7.225810000000000
O      -0.349440000000000      9.334590000000000      5.991430000000000
C      -1.172500000000000      9.921720000000001      3.828470000000000
C      -0.921770000000000      9.931609999999999      8.286890000000000
H      -1.965880000000000     10.596390000000000      5.699970000000000
H      -0.343170000000000     11.298349999999999      5.238860000000000
H       0.886140000000000      9.017799999999999      7.581130000000000
H       0.754890000000000     10.726590000000000      7.116880000000000
H      -1.453140000000000      8.967060000000000      8.421239999999999
H      -0.457990000000000     10.219799999999999      9.253510000000000
H      -1.651400000000000     10.717269999999999      8.002960000000000
H      -1.792930000000000      9.000400000000001      3.801370000000000
H      -1.686900000000000     10.717540000000000      3.249630000000000
H      -0.193180000000000      9.709759999999999      3.351020000000000
C       3.247100000000000      9.807790000000001      3.222490000000000
C       2.473660000000000      8.197600000000000      1.748070000000000
O       2.336180000000000      8.752079999999999      3.033770000000000
C       3.066960000000000     10.342180000000001      4.637330000000000
C       1.443290000000000      7.085600000000000      1.599410000000000
H       4.296990000000000      9.451610000000001      3.119810000000000
H       3.039600000000000     10.638199999999999      2.510950000000000
H       2.272150000000000      8.961300000000000      0.963450000000000
H       3.485390000000000      7.752350000000000      1.615770000000000
H       0.420390000000000      7.500370000000000      1.726730000000000
H       1.521280000000000      6.621790000000000      0.594180000000000
H       1.611470000000000      6.303770000000000      2.371570000000000
H       3.265830000000000      9.537580000000000      5.377920000000000
H       3.765570000000000     11.184260000000000      4.822030000000000
H       2.026640000000000     10.703320000000000      4.774240000000000
Mg     -4.934440000000000     14.713880000000000     10.305610000000000
C      -7.605740000000000     15.067769999999999      7.529840000000000
C      -5.812140000000000     16.396039999999999      6.949770000000000
O      -6.634300000000000     15.971909999999999      8.017410000000000
C      -8.735770000000000     14.946040000000000      8.540260000000000
C      -4.694770000000000     17.277989999999999      7.488680000000000
H      -8.064640000000001     15.420700000000000      6.578540000000000
H      -7.152660000000000     14.065370000000000      7.376300000000000
H      -5.349690000000000     15.528950000000000      6.429220000000000
H      -6.399290000000000     16.998740000000002      6.223150000000000
H      -4.071980000000000     16.714659999999999      8.212660000000000
H      -4.048410000000000     17.617770000000000      6.651880000000000
H      -5.124270000000000     18.167320000000000      7.995510000000000
H      -9.208869999999999     15.935689999999999      8.706189999999999
H      -9.497900000000000     14.229270000000000      8.169969999999999
H      -8.354460000000000     14.576580000000000      9.505110000000000
H      -4.552500000000000     17.992300000000000     10.522410000000001
C      -3.191260000000000     16.739360000000001     11.695940000000000
C      -4.577550000000000     17.095279999999999     11.173209999999999
C      -2.218010000000000     16.446549999999998     10.547169999999999
H      -2.820880000000000     17.594429999999999     12.298489999999999
H      -3.267360000000000     15.841580000000000     12.348760000000000
H      -2.557610000000000     15.555160000000001      9.975600000000000
H      -2.178070000000000     17.316690000000001      9.857490000000000
C      -0.811110000000000     16.188099999999999     11.078970000000000
H      -5.287230000000000     17.247669999999999     12.012079999999999
H      -0.446390000000000     17.079590000000000     11.632910000000001
H      -0.804940000000000     15.309010000000001     11.757830000000000
H      -0.119780000000000     15.991680000000001     10.232410000000000
C      -3.667310000000000     13.820620000000000      7.542690000000000
C      -3.887360000000000     12.705010000000000      6.756040000000000
C      -4.834280000000000     11.929500000000001      7.409810000000000
C      -5.169450000000000     12.619630000000001      8.555460000000000
N      -4.457790000000000     13.749730000000000      8.625069999999999
C      -6.165240000000000     12.223649999999999      9.634119999999999
N      -6.453090000000000     13.375420000000000     10.524070000000000
C      -7.044290000000000     13.132560000000000     11.854189999999999
H      -3.409170000000000     12.483700000000001      5.812490000000000
H      -2.983480000000000     14.632420000000000      7.329920000000000
H      -5.240080000000000     10.983840000000001      7.079330000000000
H      -7.116390000000000     11.917199999999999      9.152979999999999
H      -5.733760000000000     11.366140000000000     10.187279999999999
C      -6.005140000000000     12.519190000000000     12.807380000000000
C      -7.501210000000000     14.485450000000000     12.437709999999999
C      -8.277450000000000     12.214070000000000     11.734349999999999
H      -5.134860000000000     13.201440000000000     12.919320000000001
H      -6.454300000000000     12.357310000000000     13.811750000000000
H      -5.642030000000000     11.540450000000000     12.437120000000000
H      -8.259779999999999     14.969860000000001     11.787750000000001
H      -7.957420000000000     14.347709999999999     13.442940000000000
H      -6.641870000000000     15.180880000000000     12.541000000000000
H      -9.022720000000000     12.660100000000000     11.039920000000000
H      -7.994070000000000     11.213250000000000     11.347910000000001
H      -8.762119999999999     12.072780000000000     12.723770000000000
