155

Mg     -0.293010000000000      0.400630000000000      0.667050000000000
C       0.967350000000000     -2.473910000000000     -1.400510000000000
C      -1.337560000000000     -2.551880000000000     -1.387640000000000
O      -0.188220000000000     -2.308220000000000     -0.601740000000000
C       2.186720000000000     -2.644320000000000     -0.507070000000000
C      -2.589440000000000     -2.284690000000000     -0.562860000000000
H       0.907730000000000     -3.385570000000000     -2.035800000000000
H       1.118790000000000     -1.584260000000000     -2.046330000000000
H      -1.360710000000000     -1.893490000000000     -2.281420000000000
H      -1.367540000000000     -3.612420000000000     -1.715710000000000
H      -2.624450000000000     -1.226160000000000     -0.235200000000000
H      -3.492520000000000     -2.496330000000000     -1.173570000000000
H      -2.599710000000000     -2.939010000000000      0.332370000000000
H       2.060840000000000     -3.527310000000000      0.151820000000000
H       3.096160000000000     -2.769980000000000     -1.130560000000000
H       2.331270000000000     -1.760000000000000      0.129460000000000
H      -2.280460000000000     -1.426570000000000      2.359670000000000
C      -2.432210000000000      0.741170000000000      2.734080000000000
C      -1.636100000000000     -0.542050000000000      2.528440000000000
C      -3.342520000000000      1.044850000000000      1.536050000000000
H      -3.041780000000000      0.616630000000000      3.651600000000000
H      -1.726300000000000      1.589820000000000      2.876790000000000
H      -2.732150000000000      1.232360000000000      0.624830000000000
H      -4.010860000000000      0.178840000000000      1.343230000000000
C      -4.210760000000000      2.270090000000000      1.813320000000000
H      -0.920670000000000     -0.714320000000000      3.358160000000000
H      -4.842020000000000      2.090390000000000      2.709940000000000
H      -3.579020000000000      3.166970000000000      1.987190000000000
H      -4.878040000000000      2.465310000000000      0.947270000000000
C      -1.506560000000000      0.662830000000000     -2.242430000000000
C      -0.906920000000000      0.971420000000000     -3.450610000000000
C       0.434500000000000      1.202930000000000     -3.183310000000000
C       0.599630000000000      1.011590000000000     -1.831260000000000
N      -0.575180000000000      0.676770000000000     -1.280550000000000
C       1.866400000000000      1.166250000000000     -1.008660000000000
N       1.700550000000000      0.568700000000000      0.336650000000000
C       2.637420000000000      0.943710000000000      1.414730000000000
H      -1.392780000000000      1.023050000000000     -4.413910000000000
H      -2.553720000000000      0.427450000000000     -2.086530000000000
H       1.204940000000000      1.469650000000000     -3.893230000000000
H       2.702960000000000      0.648550000000000     -1.519610000000000
H       2.074820000000000      2.252160000000000     -0.948040000000000
C       2.384820000000000      2.385470000000000      1.890480000000000
C       2.417050000000000     -0.006620000000000      2.609660000000000
C       4.091990000000000      0.786080000000000      0.928750000000000
H       1.352930000000000      2.488670000000000      2.290110000000000
H       3.100760000000000      2.651840000000000      2.698900000000000
H       2.521610000000000      3.116330000000000      1.069950000000000
H       2.598370000000000     -1.064200000000000      2.325040000000000
H       3.109100000000000      0.242330000000000      3.444540000000000
H       1.377450000000000      0.074930000000000      2.989830000000000
H       4.266590000000000     -0.252860000000000      0.573030000000000
H       4.308310000000000      1.482960000000000      0.092800000000000
H       4.809780000000000      1.002080000000000      1.747850000000000
Na      4.616890000000000    -12.911060000000001      1.195800000000000
C       7.138120000000000    -10.954549999999999      1.213870000000000
C       5.321400000000000     -9.648610000000000      1.920630000000000
O       5.750180000000000    -10.710620000000000      1.089590000000000
C       7.415300000000000    -11.962800000000000      2.324550000000000
C       5.409740000000000     -8.309080000000000      1.193900000000000
H       7.494880000000000    -11.386530000000000      0.254850000000000
H       7.726400000000000    -10.022380000000000      1.369620000000000
H       4.258560000000000     -9.834250000000001      2.185820000000000
H       5.878060000000000     -9.606180000000000      2.883030000000000
H       4.782010000000000     -8.320650000000001      0.278790000000000
H       5.043100000000000     -7.503110000000000      1.862850000000000
H       6.458920000000000     -8.085120000000000      0.911010000000000
H       6.883390000000000    -12.915319999999999      2.119380000000000
H       8.505110000000000    -12.165910000000000      2.377020000000000
H       7.081520000000000    -11.566179999999999      3.304880000000000
C       4.070830000000000    -12.568160000000001      4.494760000000000
C       2.917570000000000    -14.459009999999999      3.612980000000000
O       3.655740000000000    -13.280220000000000      3.342780000000000
C       5.034690000000000    -13.349440000000000      5.388730000000000
C       1.586170000000000    -14.197810000000000      4.316450000000000
H       4.624530000000000    -11.677800000000000      4.129900000000000
H       3.207780000000000    -12.167109999999999      5.064640000000000
H       2.675830000000000    -14.910890000000000      2.627000000000000
H       3.527370000000000    -15.218680000000001      4.144270000000000
H       0.996390000000000    -13.452560000000000      3.743450000000000
H       1.010900000000000    -15.145280000000000      4.375940000000000
H       1.746680000000000    -13.835089999999999      5.351740000000000
H       5.900130000000000    -13.710860000000000      4.794310000000000
H       5.405210000000000    -12.682560000000000      6.195300000000000
H       4.525640000000000    -14.208460000000001      5.870470000000000
Na      4.899960000000000    -10.235870000000000     -1.095190000000000
C       3.777570000000000    -13.310940000000000     -1.680630000000000
C       2.129600000000000    -11.932079999999999     -0.750670000000000
O       3.513310000000000    -12.204940000000001     -0.842290000000000
C       5.261880000000000    -13.318669999999999     -2.025490000000000
C       1.424780000000000    -12.875019999999999      0.222510000000000
H       3.544490000000000    -14.257960000000001     -1.148470000000000
H       3.215130000000000    -13.255750000000001     -2.639690000000000
H       2.024770000000000    -10.898870000000001     -0.355270000000000
H       1.633250000000000    -11.931100000000001     -1.746190000000000
H       1.899100000000000    -12.814590000000001      1.223630000000000
H       0.358580000000000    -12.579639999999999      0.315130000000000
H       1.466580000000000    -13.921889999999999     -0.141440000000000
H       5.872250000000000    -13.368790000000001     -1.098380000000000
H       5.498760000000000    -14.199439999999999     -2.658720000000000
H       5.530430000000000    -12.396839999999999     -2.582470000000000
C       4.759090000000000     -9.530090000000000     -4.330030000000000
C       6.958730000000000     -9.420909999999999     -3.614540000000000
O       5.641190000000000     -9.762380000000000     -3.258840000000000
C       3.352140000000000     -9.890710000000000     -3.871980000000000
C       7.862610000000000     -9.723530000000000     -2.426860000000000
H       4.761540000000000     -8.455840000000000     -4.622680000000000
H       5.016060000000000    -10.177379999999999     -5.198340000000000
H       7.307700000000000    -10.031779999999999     -4.477380000000000
H       7.037720000000000     -8.333940000000000     -3.841930000000000
H       7.805410000000000    -10.804169999999999     -2.174990000000000
H       8.914239999999999     -9.465719999999999     -2.670020000000000
H       7.540730000000000     -9.132020000000001     -1.542370000000000
H       3.060640000000000     -9.262869999999999     -3.002320000000000
H       2.626440000000000     -9.727600000000001     -4.695350000000000
H       3.316470000000000    -10.957660000000001     -3.569170000000000
Mg     -0.646080000000000     -9.070440000000000      1.911380000000000
H      -1.725350000000000     -8.734430000000000     -1.033920000000000
C      -3.571760000000000     -8.324439999999999      0.072890000000000
C      -2.243500000000000     -9.041930000000001     -0.103140000000000
C      -3.424750000000000     -6.796950000000000      0.120760000000000
H      -4.222610000000000     -8.597490000000001     -0.783730000000000
H      -4.057890000000000     -8.677260000000000      1.007370000000000
H      -2.948740000000000     -6.428730000000000     -0.814120000000000
H      -4.445470000000000     -6.364660000000000      0.186600000000000
C      -2.625140000000000     -6.301320000000000      1.327470000000000
H      -2.393370000000000    -10.143230000000001     -0.095850000000000
H      -1.568310000000000     -6.630350000000000      1.265920000000000
H      -2.642890000000000     -5.191000000000000      1.345780000000000
H      -3.073610000000000     -6.672460000000000      2.273730000000000
C       1.607420000000000     -6.837150000000000      1.719200000000000
C       2.387000000000000     -6.230500000000000      2.690540000000000
C       2.006670000000000     -6.771070000000000      3.909570000000000
C       0.998350000000000     -7.667320000000000      3.632640000000000
N       0.777400000000000     -7.710480000000000      2.311260000000000
C       0.218380000000000     -8.522259999999999      4.613650000000000
N      -0.935110000000000     -9.140530000000000      3.926180000000000
C      -1.894230000000000     -9.984260000000001      4.661260000000000
H       3.150170000000000     -5.481240000000000      2.530170000000000
H       1.650060000000000     -6.652080000000000      0.653500000000000
H       2.407890000000000     -6.528900000000000      4.884280000000000
H       0.906070000000000     -9.294370000000001      5.016790000000000
H      -0.147200000000000     -7.870830000000000      5.429510000000000
C      -2.640040000000000     -9.132550000000000      5.707590000000000
C      -2.925940000000000    -10.538320000000001      3.662330000000000
C      -1.179340000000000    -11.162340000000000      5.345630000000000
H      -3.161480000000000     -8.284850000000000      5.210610000000000
H      -3.396310000000000     -9.742200000000000      6.246480000000000
H      -1.943780000000000     -8.718550000000000      6.464490000000000
H      -2.431190000000000    -11.166069999999999      2.890670000000000
H      -3.682870000000000    -11.163300000000000      4.186850000000000
H      -3.459210000000000     -9.709790000000000      3.149980000000000
H      -0.643560000000000    -11.776999999999999      4.592300000000000
H      -0.448540000000000    -10.802590000000000      6.098740000000000
H      -1.913840000000000    -11.808690000000000      5.873110000000000
