140

Mg      0.095100000000000      0.990840000000000      0.187560000000000
H      -2.123530000000000      2.396800000000000     -1.340230000000000
C      -0.355900000000000      3.039320000000000     -2.481080000000000
C      -1.087190000000000      2.755750000000000     -1.176350000000000
C      -0.127700000000000      1.786760000000000     -3.344000000000000
H      -0.930090000000000      3.799780000000000     -3.049340000000000
H       0.642040000000000      3.461550000000000     -2.232980000000000
H       0.396960000000000      2.107120000000000     -4.270450000000000
H       0.528160000000000      1.066930000000000     -2.809800000000000
C      -1.417850000000000      1.071560000000000     -3.740840000000000
H      -1.095370000000000      3.646140000000000     -0.515130000000000
H      -1.920320000000000      0.646580000000000     -2.847060000000000
H      -2.105990000000000      1.771220000000000     -4.259030000000000
H      -1.177040000000000      0.230970000000000     -4.425920000000000
C       2.683400000000000     -0.201150000000000     -1.219300000000000
C       3.395340000000000     -1.367210000000000     -0.989250000000000
C       2.752040000000000     -2.035470000000000      0.041180000000000
C       1.667600000000000     -1.260260000000000      0.383060000000000
N       1.642540000000000     -0.153740000000000     -0.373280000000000
C       0.630640000000000     -1.535910000000000      1.454890000000000
N      -0.497120000000000     -0.590370000000000      1.318830000000000
C      -1.656240000000000     -0.663070000000000      2.227250000000000
H       4.286360000000000     -1.692600000000000     -1.507980000000000
H       2.919080000000000      0.560270000000000     -1.952550000000000
H       3.034520000000000     -2.980830000000000      0.483700000000000
H       1.129460000000000     -1.422930000000000      2.439470000000000
H       0.260110000000000     -2.569650000000000      1.326460000000000
C      -1.216100000000000     -0.553510000000000      3.698500000000000
C      -2.612150000000000      0.501090000000000      1.905860000000000
C      -2.407390000000000     -1.988090000000000      1.994970000000000
H      -0.672370000000000      0.399940000000000      3.870450000000000
H      -2.100720000000000     -0.582750000000000      4.371070000000000
H      -0.555360000000000     -1.398350000000000      3.981650000000000
H      -2.944500000000000      0.459130000000000      0.846180000000000
H      -3.516380000000000      0.454050000000000      2.553690000000000
H      -2.114800000000000      1.479710000000000      2.077030000000000
H      -2.736740000000000     -2.061320000000000      0.935030000000000
H      -1.764690000000000     -2.862470000000000      2.221570000000000
H      -3.302140000000000     -2.052390000000000      2.648270000000000
Na    -11.199870000000001     -6.282730000000000     -0.467840000000000
C      -8.882250000000001     -4.440190000000000     -1.679180000000000
C      -8.041270000000001     -6.626320000000000     -1.802400000000000
O      -8.843510000000000     -5.717440000000000     -1.072570000000000
C     -10.029420000000000     -4.350350000000000     -2.680410000000000
C      -6.591590000000000     -6.587660000000000     -1.325380000000000
H      -9.057160000000000     -3.689260000000000     -0.879800000000000
H      -7.916530000000000     -4.161260000000000     -2.157890000000000
H      -8.442230000000000     -7.647140000000000     -1.625890000000000
H      -8.093520000000000     -6.459030000000000     -2.901300000000000
H      -6.531070000000000     -6.837880000000000     -0.245940000000000
H      -5.996460000000000     -7.332630000000000     -1.893930000000000
H      -6.152060000000000     -5.582160000000000     -1.488730000000000
H     -10.995720000000000     -4.559240000000000     -2.175660000000000
H     -10.065210000000000     -3.328830000000000     -3.112580000000000
H      -9.886889999999999     -5.079130000000000     -3.504130000000000
C     -11.565890000000000     -8.023880000000000     -3.343120000000000
C     -13.409380000000001     -8.359299999999999     -1.869960000000000
O     -12.097340000000001     -7.851910000000000     -2.041080000000000
C     -12.341310000000000     -7.277470000000000     -4.429360000000000
C     -13.505660000000001     -9.874750000000001     -2.045200000000000
H     -10.544269999999999     -7.589790000000000     -3.324540000000000
H     -11.427680000000001     -9.095470000000001     -3.594160000000000
H     -13.697710000000001     -8.138410000000000     -0.819820000000000
H     -14.148890000000000     -7.820580000000000     -2.497740000000000
H     -12.770390000000001    -10.381080000000001     -1.385090000000000
H     -14.527820000000000    -10.210810000000000     -1.772070000000000
H     -13.325939999999999    -10.165979999999999     -3.099690000000000
H     -12.436100000000000     -6.203900000000000     -4.162780000000000
H     -11.793930000000000     -7.361330000000000     -5.390450000000000
H     -13.347630000000001     -7.718370000000000     -4.577460000000000
Na     -8.090900000000000     -5.860620000000000      1.205140000000000
C     -11.150420000000000     -5.990220000000000      2.537170000000000
C     -10.257540000000001     -8.116960000000001      2.143210000000000
O     -10.280840000000000     -6.763750000000000      1.736590000000000
C     -10.854620000000001     -4.515790000000000      2.294070000000000
C     -11.468629999999999     -8.888529999999999      1.623260000000000
H     -12.206400000000000     -6.180340000000000      2.248630000000000
H     -11.004000000000000     -6.182480000000000      3.623860000000000
H      -9.347870000000000     -8.576480000000000      1.700610000000000
H     -10.149630000000000     -8.225250000000001      3.245230000000000
H     -11.522200000000000     -8.813200000000000      0.517660000000000
H     -11.372870000000001     -9.958310000000001      1.903830000000000
H     -12.406990000000000     -8.495010000000001      2.064400000000000
H     -10.986070000000000     -4.269390000000000      1.218660000000000
H     -11.546500000000000     -3.887580000000000      2.893520000000000
H      -9.811199999999999     -4.281260000000000      2.591240000000000
C      -6.822230000000000     -5.003200000000000      4.148200000000000
C      -6.501780000000000     -3.269490000000000      2.649240000000000
O      -7.115020000000000     -4.517910000000000      2.860210000000000
C      -7.481890000000000     -6.366770000000000      4.303420000000000
C      -6.874350000000000     -2.787130000000000      1.254040000000000
H      -5.724950000000000     -5.134030000000000      4.285510000000000
H      -7.240220000000000     -4.326770000000000      4.927120000000000
H      -6.869840000000000     -2.517830000000000      3.383410000000000
H      -5.394180000000000     -3.361500000000000      2.698770000000000
H      -7.977910000000000     -2.687020000000000      1.172010000000000
H      -6.406690000000000     -1.800970000000000      1.052710000000000
H      -6.522880000000000     -3.516270000000000      0.492170000000000
H      -7.087880000000000     -7.070910000000000      3.539060000000000
H      -7.278500000000000     -6.778490000000000      5.313570000000000
H      -8.579340000000000     -6.271870000000000      4.169250000000000
Mg     -5.879880000000000    -11.938870000000000     -6.057390000000000
H      -8.448689999999999    -12.675269999999999     -7.636400000000000
C      -8.777260000000000    -10.544760000000000     -7.275520000000000
C      -8.312749999999999    -11.920790000000000     -6.834240000000000
C     -10.271509999999999    -10.579980000000001     -7.585130000000000
H      -8.572319999999999     -9.814430000000000     -6.462580000000000
H      -8.201800000000000    -10.242419999999999     -8.177820000000001
H     -10.463320000000000    -11.322600000000000     -8.390169999999999
H     -10.828670000000001    -10.885820000000001     -6.672560000000000
C     -10.772390000000000     -9.216850000000001     -8.039220000000000
H      -8.818390000000001    -12.238960000000001     -5.898600000000000
H     -10.602779999999999     -8.461779999999999     -7.243590000000000
H     -10.242929999999999     -8.901470000000000     -8.963229999999999
H     -11.859959999999999     -9.280620000000001     -8.250980000000000
C      -4.498120000000000    -14.785280000000000     -6.251480000000000
C      -3.175040000000000    -15.178910000000000     -6.138460000000000
C      -2.429410000000000    -14.031010000000000     -5.914310000000000
C      -3.326590000000000    -12.985250000000001     -5.915050000000000
N      -4.567740000000000    -13.452280000000000     -6.108120000000000
C      -3.032980000000000    -11.507470000000000     -5.721930000000000
N      -4.258670000000000    -10.716210000000000     -5.963140000000000
C      -4.256720000000000     -9.246350000000000     -5.861910000000000
H      -2.795080000000000    -16.189170000000001     -6.207950000000000
H      -5.349130000000000    -15.431940000000001     -6.423000000000000
H      -1.358930000000000    -13.966240000000001     -5.776630000000000
H      -2.252560000000000    -11.209630000000001     -6.447860000000000
H      -2.667560000000000    -11.364920000000000     -4.684510000000000
C      -3.341140000000000     -8.650510000000001     -6.948110000000000
C      -5.689650000000000     -8.735410000000000     -6.097260000000000
C      -3.793090000000000     -8.796210000000000     -4.465350000000000
H      -3.683460000000000     -8.971620000000000     -7.956510000000000
H      -3.355180000000000     -7.540390000000000     -6.909590000000000
H      -2.290580000000000     -8.979010000000001     -6.814520000000000
H      -6.382310000000000     -9.138840000000000     -5.328020000000000
H      -5.723520000000000     -7.624280000000000     -6.045370000000000
H      -6.058210000000000     -9.045170000000001     -7.098760000000000
H      -4.452960000000000     -9.228080000000000     -3.682380000000000
H      -2.749540000000000     -9.116960000000001     -4.269170000000000
H      -3.825200000000000     -7.688350000000000     -4.383240000000000
