95

Mg      0.264140000000000      0.974380000000000      0.054260000000000
H       1.617480000000000      1.710730000000000     -2.536880000000000
C       3.331380000000000      1.691420000000000     -1.152380000000000
C       1.894770000000000      2.039790000000000     -1.514820000000000
C       3.601550000000000      0.178600000000000     -1.078440000000000
H       4.004930000000000      2.167930000000000     -1.893610000000000
H       3.547510000000000      2.118570000000000     -0.149080000000000
H       4.675820000000000      0.040870000000000     -0.826980000000000
H       2.998770000000000     -0.281360000000000     -0.266640000000000
C       3.310240000000000     -0.561140000000000     -2.382660000000000
H       1.691500000000000      3.123080000000000     -1.390830000000000
H       2.225030000000000     -0.532370000000000     -2.613860000000000
H       3.882900000000000     -0.111060000000000     -3.219810000000000
H       3.606240000000000     -1.626650000000000     -2.276680000000000
C       1.608320000000000     -0.850730000000000      2.280480000000000
C       1.077840000000000     -1.840470000000000      3.092490000000000
C      -0.264060000000000     -1.953520000000000      2.763620000000000
C      -0.492030000000000     -1.043510000000000      1.758350000000000
N       0.640260000000000     -0.380020000000000      1.480500000000000
C      -1.798440000000000     -0.758170000000000      1.044910000000000
N      -1.553980000000000      0.092370000000000     -0.137600000000000
C      -2.664320000000000      0.482200000000000     -1.025950000000000
H       1.605050000000000     -2.411470000000000      3.843500000000000
H       2.633490000000000     -0.499670000000000      2.283960000000000
H      -0.990300000000000     -2.626790000000000      3.198360000000000
H      -2.467630000000000     -0.247800000000000      1.768290000000000
H      -2.238300000000000     -1.719120000000000      0.721750000000000
C      -3.782360000000000      1.189250000000000     -0.238690000000000
C      -2.127240000000000      1.445970000000000     -2.100610000000000
C      -3.220760000000000     -0.771280000000000     -1.728420000000000
H      -3.383170000000000      2.091120000000000      0.271210000000000
H      -4.600730000000000      1.502280000000000     -0.922690000000000
H      -4.224670000000000      0.513510000000000      0.521740000000000
H      -1.308780000000000      0.971690000000000     -2.683890000000000
H      -2.937340000000000      1.730020000000000     -2.809620000000000
H      -1.732400000000000      2.375210000000000     -1.636900000000000
H      -2.415370000000000     -1.273600000000000     -2.308310000000000
H      -3.627250000000000     -1.497730000000000     -0.996480000000000
H      -4.043670000000000     -0.503460000000000     -2.423950000000000
Na      3.803980000000000      6.249740000000000     11.985640000000000
C       1.097670000000000      7.027490000000000     10.296350000000000
C       1.985800000000000      8.898660000000000     11.304990000000000
O       1.573450000000000      7.564660000000000     11.512090000000001
C       0.646070000000000      5.592770000000000     10.528050000000000
C       2.512090000000000      9.468260000000001     12.615150000000000
H       0.219790000000000      7.603880000000000      9.924780000000000
H       1.905870000000000      7.008700000000000      9.530570000000001
H       2.811320000000000      8.946669999999999     10.558650000000000
H       1.128100000000000      9.530379999999999     10.979670000000000
H       3.379230000000000      8.872170000000001     12.970980000000001
H       2.837880000000000     10.519290000000000     12.463550000000000
H       1.715510000000000      9.447990000000001     13.388999999999999
H      -0.168200000000000      5.565410000000000     11.283170000000000
H       0.269380000000000      5.160000000000000      9.576940000000000
H       1.497400000000000      4.978090000000000     10.890660000000000
Na     -0.589990000000000      7.806370000000000     12.996460000000001
Mg     -0.447110000000000      4.901630000000000      5.907670000000000
H      -1.210470000000000      2.818930000000000      3.770870000000000
C      -3.081040000000000      2.943300000000000      4.912890000000000
C      -1.563080000000000      2.859680000000000      4.821460000000000
C      -3.660100000000000      4.238740000000000      4.320790000000000
H      -3.517550000000000      2.058990000000000      4.403540000000000
H      -3.365090000000000      2.907630000000000      5.987080000000000
H      -4.765480000000000      4.196980000000000      4.433470000000000
H      -3.289260000000000      5.118310000000000      4.888710000000000
C      -3.333280000000000      4.434940000000000      2.841460000000000
H      -1.180480000000000      1.977030000000000      5.373400000000000
H      -2.242650000000000      4.579570000000000      2.695640000000000
H      -3.676380000000000      3.560890000000000      2.250980000000000
H      -3.848850000000000      5.344970000000000      2.467930000000000
C      -2.509650000000000      7.036130000000000      7.037320000000000
C      -2.362230000000000      8.373150000000001      7.367700000000000
C      -1.045530000000000      8.713609999999999      7.097130000000000
C      -0.452380000000000      7.576730000000000      6.594600000000000
N      -1.337590000000000      6.570900000000000      6.576690000000000
C       0.980460000000000      7.404930000000000      6.126510000000000
N       1.126920000000000      6.104850000000000      5.437420000000000
C       2.422830000000000      5.687140000000000      4.873410000000000
H      -3.126470000000000      9.027040000000000      7.765080000000000
H      -3.412570000000000      6.446710000000000      7.132300000000000
H      -0.579630000000000      9.679200000000000      7.237710000000000
H       1.638040000000000      7.464880000000000      7.017510000000000
H       1.217960000000000      8.221959999999999      5.419350000000000
C       3.518640000000000      5.675060000000000      5.954360000000000
C       2.272040000000000      4.266150000000000      4.299240000000000
C       2.817410000000000      6.637320000000000      3.725970000000000
H       3.236940000000000      4.991750000000000      6.783780000000000
H       4.483880000000000      5.330950000000000      5.523580000000000
H       3.682680000000000      6.691020000000000      6.368550000000000
H       1.481620000000000      4.237470000000000      3.518260000000000
H       3.226580000000000      3.926760000000000      3.838310000000000
H       1.997630000000000      3.545120000000000      5.098720000000000
H       2.027490000000000      6.640730000000000      2.942850000000000
H       2.952390000000000      7.676010000000000      4.089910000000000
H       3.773310000000000      6.317740000000000      3.259080000000000
