140

Mg     -0.428630000000000      0.625380000000000      0.166830000000000
H      -3.280480000000000      0.895570000000000     -0.718340000000000
C      -2.360140000000000      0.251190000000000     -2.601000000000000
C      -2.365790000000000      1.064500000000000     -1.322460000000000
C      -3.516900000000000      0.699330000000000     -3.485340000000000
H      -1.392080000000000      0.404260000000000     -3.126270000000000
H      -2.458220000000000     -0.826910000000000     -2.345350000000000
H      -4.473360000000000      0.549990000000000     -2.938430000000000
H      -3.399720000000000      1.780210000000000     -3.719190000000000
C      -3.556040000000000     -0.090130000000000     -4.784460000000000
H      -2.190320000000000      2.143830000000000     -1.513690000000000
H      -2.614260000000000      0.060490000000000     -5.353760000000000
H      -3.689790000000000     -1.172030000000000     -4.571830000000000
H      -4.409430000000000      0.265640000000000     -5.397790000000000
C      -0.915950000000000      1.302860000000000      3.227190000000000
C      -0.172530000000000      1.005570000000000      4.358450000000000
C       0.932640000000000      0.284070000000000      3.934450000000000
C       0.812970000000000      0.161170000000000      2.570490000000000
N      -0.301420000000000      0.782210000000000      2.155210000000000
C       1.764980000000000     -0.534970000000000      1.617710000000000
N       1.175760000000000     -0.606860000000000      0.265470000000000
C       1.891480000000000     -1.274280000000000     -0.837020000000000
H      -0.404100000000000      1.285760000000000      5.376110000000000
H      -1.840860000000000      1.867130000000000      3.197090000000000
H       1.730240000000000     -0.113240000000000      4.547310000000000
H       1.948610000000000     -1.557370000000000      1.995280000000000
H       2.706930000000000      0.050580000000000      1.602680000000000
C       2.013450000000000     -2.779600000000000     -0.534220000000000
C       1.085050000000000     -1.101780000000000     -2.137120000000000
C       3.286840000000000     -0.655670000000000     -1.035000000000000
H       1.003980000000000     -3.229330000000000     -0.407280000000000
H       2.535450000000000     -3.308560000000000     -1.359030000000000
H       2.592950000000000     -2.955090000000000      0.393440000000000
H       0.987250000000000     -0.027200000000000     -2.401370000000000
H       1.591150000000000     -1.620440000000000     -2.982290000000000
H       0.067090000000000     -1.533420000000000     -2.030100000000000
H       3.200020000000000      0.432540000000000     -1.243610000000000
H       3.916790000000000     -0.796940000000000     -0.133130000000000
H       3.809840000000000     -1.139670000000000     -1.887550000000000
Na     -0.427630000000000     -6.754020000000000      3.203230000000000
C       1.066530000000000     -5.549200000000000      5.752960000000000
C       1.789820000000000     -7.775860000000000      5.592970000000000
O       0.717620000000000     -6.873320000000000      5.397190000000000
C       1.660550000000000     -4.804380000000000      4.561210000000000
C       1.762210000000000     -8.369280000000000      6.999240000000000
H       0.138110000000000     -5.024640000000000      6.063510000000000
H       1.752280000000000     -5.505920000000000      6.628860000000000
H       1.673470000000000     -8.603610000000000      4.861010000000000
H       2.780920000000000     -7.315150000000000      5.384880000000000
H       0.807730000000000     -8.907120000000001      7.176190000000000
H       2.598700000000000     -9.090009999999999      7.110580000000000
H       1.876550000000000     -7.572830000000000      7.763130000000000
H       0.937500000000000     -4.788890000000000      3.719030000000000
H       1.890110000000000     -3.758760000000000      4.854220000000000
H       2.597920000000000     -5.291640000000000      4.224000000000000
C       2.442210000000000     -7.399840000000000      1.574380000000000
C       0.571540000000000     -7.451970000000000      0.098060000000000
O       1.032450000000000     -7.402550000000000      1.436910000000000
C       3.118580000000000     -6.173910000000000      0.960090000000000
C       0.960630000000000     -8.735930000000000     -0.634170000000000
H       2.650470000000000     -7.366250000000000      2.664340000000000
H       2.893410000000000     -8.347600000000000      1.215870000000000
H      -0.538430000000000     -7.435290000000000      0.147480000000000
H       0.855260000000000     -6.543800000000000     -0.473110000000000
H       0.639430000000000     -9.619240000000000     -0.044000000000000
H       0.458160000000000     -8.760579999999999     -1.623630000000000
H       2.054410000000000     -8.778860000000000     -0.810220000000000
H       2.663040000000000     -5.246690000000000      1.365270000000000
H       4.198670000000000     -6.186230000000000      1.216330000000000
H       3.035260000000000     -6.181900000000000     -0.145490000000000
Na     -1.181400000000000     -7.848730000000000      6.478350000000000
C      -3.301040000000000     -7.282440000000000      3.978610000000000
C      -2.310800000000000     -9.399120000000000      3.834230000000000
O      -2.162230000000000     -8.064380000000000      4.274560000000000
C      -3.231890000000000     -5.993100000000000      4.787900000000000
C      -2.052310000000000     -9.538019999999999      2.335280000000000
H      -3.308510000000000     -7.010850000000000      2.901320000000000
H      -4.248360000000000     -7.797070000000000      4.256010000000000
H      -1.547360000000000    -10.006640000000001      4.366160000000000
H      -3.296710000000000     -9.829380000000000      4.117660000000000
H      -1.040540000000000     -9.157410000000000      2.085600000000000
H      -2.110720000000000    -10.609059999999999      2.048790000000000
H      -2.810290000000000     -8.978360000000000      1.750140000000000
H      -2.298160000000000     -5.439400000000000      4.550910000000000
H      -4.102530000000000     -5.347650000000000      4.546630000000000
H      -3.247800000000000     -6.221490000000000      5.874050000000000
C      -3.713070000000000     -8.322810000000000      8.564130000000000
C      -2.496240000000000     -6.472500000000000      9.240690000000001
O      -2.665480000000000     -7.442730000000000      8.236170000000000
C      -3.824380000000000     -9.361020000000000      7.455500000000000
C      -1.372750000000000     -5.538370000000000      8.811349999999999
H      -3.500680000000000     -8.857770000000000      9.517230000000000
H      -4.681100000000000     -7.776640000000000      8.624160000000000
H      -3.420760000000000     -5.864870000000000      9.365140000000000
H      -2.202740000000000     -6.947630000000000     10.203799999999999
H      -1.636820000000000     -5.047520000000000      7.850190000000000
H      -1.208830000000000     -4.756610000000000      9.581740000000000
H      -0.431100000000000     -6.112870000000000      8.673370000000000
H      -2.872240000000000     -9.927360000000000      7.365270000000000
H      -4.648190000000000    -10.071050000000000      7.675440000000000
H      -4.033170000000000     -8.858510000000001      6.488410000000000
Mg      0.540050000000000    -13.233050000000000      3.446480000000000
H      -2.135610000000000    -14.337109999999999      4.704490000000000
C      -1.460980000000000    -16.140350000000002      3.657860000000000
C      -1.592080000000000    -14.631370000000000      3.783890000000000
C      -0.721730000000000    -16.777139999999999      4.842910000000000
H      -2.483770000000000    -16.567560000000000      3.599700000000000
H      -0.925900000000000    -16.384720000000002      2.715600000000000
H      -1.253670000000000    -16.548739999999999      5.792070000000000
H      -0.732850000000000    -17.877260000000000      4.692230000000000
C       0.737980000000000    -16.332979999999999      4.958980000000000
H      -2.100350000000000    -14.210179999999999      2.889750000000000
H       0.806470000000000    -15.252789999999999      5.199070000000000
H       1.228420000000000    -16.903220000000001      5.777330000000000
H       1.285620000000000    -16.536650000000002      4.014000000000000
C       1.903900000000000    -12.396330000000001      6.192280000000000
C       3.202780000000000    -12.024749999999999      6.499380000000000
C       3.929650000000000    -12.084980000000000      5.320190000000000
C       3.049830000000000    -12.510389999999999      4.349940000000000
N       1.831250000000000    -12.679440000000000      4.882280000000000
C       3.334360000000000    -12.759390000000000      2.881060000000000
N       2.182680000000000    -13.449109999999999      2.262000000000000
C       2.213880000000000    -13.857770000000000      0.846460000000000
H       3.579080000000000    -11.738020000000001      7.471810000000000
H       1.071430000000000    -12.451350000000000      6.882020000000000
H       4.979130000000000    -11.859150000000000      5.188620000000000
H       3.521480000000000    -11.777979999999999      2.397950000000000
H       4.231360000000000    -13.402130000000000      2.804060000000000
C       3.302310000000000    -14.929530000000000      0.639060000000000
C       0.850830000000000    -14.474150000000000      0.484030000000000
C       2.475010000000000    -12.649550000000000     -0.069640000000000
H       3.108720000000000    -15.804860000000000      1.297710000000000
H       3.315720000000000    -15.279769999999999     -0.415050000000000
H       4.311170000000000    -14.533530000000001      0.872420000000000
H       0.034490000000000    -13.731769999999999      0.613620000000000
H       0.844910000000000    -14.817140000000000     -0.574710000000000
H       0.632740000000000    -15.350220000000000      1.130770000000000
H       1.690440000000000    -11.878209999999999      0.078280000000000
H       3.465740000000000    -12.196560000000000      0.139950000000000
H       2.468160000000000    -12.962410000000000     -1.136180000000000
