95

Mg     -0.911980000000000     -0.174520000000000      0.053340000000000
H      -2.227200000000000      0.628380000000000     -2.536860000000000
C      -3.067440000000000      2.122430000000000     -1.152470000000000
C      -2.650980000000000      0.704030000000000     -1.514860000000000
C      -1.892300000000000      3.112790000000000     -1.078510000000000
H      -3.816840000000000      2.467530000000000     -1.893710000000000
H      -3.545470000000000      2.096080000000000     -0.149190000000000
H      -2.310120000000000      4.112020000000000     -0.827040000000000
H      -1.192570000000000      2.820760000000000     -0.266720000000000
C      -1.105960000000000      3.230400000000000     -2.382690000000000
H      -3.487500000000000     -0.013670000000000     -1.390820000000000
H      -0.588250000000000      2.276200000000000     -2.613890000000000
H      -1.782020000000000      3.501350000000000     -3.219860000000000
H      -0.331180000000000      4.019500000000000     -2.276660000000000
C      -0.003290000000000      1.902260000000000      2.279510000000000
C       1.119020000000000      1.937610000000000      3.091610000000000
C       1.887990000000000      0.832110000000000      2.762590000000000
C       1.213940000000000      0.179780000000000      1.757120000000000
N       0.073180000000000      0.828580000000000      1.479370000000000
C       1.619970000000000     -1.094460000000000      1.043700000000000
N       0.760470000000000     -1.308750000000000     -0.138210000000000
C       0.977640000000000     -2.465590000000000     -1.026230000000000
H       1.349680000000000      2.679430000000000      3.842980000000000
H      -0.820070000000000      2.614350000000000      2.283270000000000
H       2.834010000000000      0.539650000000000      3.197560000000000
H       1.513250000000000     -1.929090000000000      1.767170000000000
H       2.671930000000000     -0.994930000000000      0.720210000000000
C       0.924140000000000     -3.787260000000000     -0.238690000000000
C      -0.125790000000000     -2.482490000000000     -2.100590000000000
C       2.341370000000000     -2.320920000000000     -1.728820000000000
H      -0.055910000000000     -3.891440000000000      0.272540000000000
H       1.061070000000000     -4.652910000000000     -0.922460000000000
H       1.731190000000000     -3.832620000000000      0.520970000000000
H      -0.124330000000000     -1.536550000000000     -2.683900000000000
H       0.033230000000000     -3.326100000000000     -2.809560000000000
H      -1.127870000000000     -2.605260000000000     -1.636640000000000
H       2.373770000000000     -1.372200000000000     -2.308620000000000
H       3.173770000000000     -2.309680000000000     -0.996890000000000
H       2.520900000000000     -3.167490000000000     -2.424280000000000
Na    -15.905440000000000     -1.515980000000000      5.109160000000000
C     -13.623590000000000     -3.101460000000000      3.367630000000000
C     -12.671450000000000     -2.095310000000000      5.207780000000000
O     -13.509510000000001     -1.894280000000000      4.089940000000000
C     -14.516880000000000     -2.876100000000000      2.156260000000000
C     -12.564880000000000     -0.794640000000000      5.991070000000000
H     -12.628959999999999     -3.435610000000000      2.997070000000000
H     -14.092760000000000     -3.894060000000000      3.993890000000000
H     -13.098170000000000     -2.866800000000000      5.888780000000000
H     -11.644940000000000     -2.383620000000000      4.885030000000000
H     -13.569780000000000     -0.475840000000000      6.341190000000000
H     -11.907380000000000     -0.940990000000000      6.874160000000000
H     -12.133190000000001      0.003310000000000      5.350240000000000
H     -14.078460000000000     -2.096480000000000      1.497650000000000
H     -14.612430000000000     -3.820620000000000      1.579730000000000
H     -15.527680000000000     -2.550610000000000      2.482020000000000
Na    -12.066920000000000     -0.349320000000000      2.514580000000000
Mg     -5.990680000000000     -3.057150000000000      2.874120000000000
H      -2.943120000000000     -3.431590000000000      2.535470000000000
C      -3.680960000000000     -5.340040000000000      1.764520000000000
C      -3.719510000000000     -4.192660000000000      2.756890000000000
C      -2.337670000000000     -6.057220000000000      1.862000000000000
H      -4.509210000000000     -6.045850000000000      1.992750000000000
H      -3.831390000000000     -4.935610000000000      0.739540000000000
H      -1.520560000000000     -5.336640000000000      1.644350000000000
H      -2.204570000000000     -6.449910000000000      2.893760000000000
C      -2.255940000000000     -7.213070000000000      0.875980000000000
H      -3.636840000000000     -4.556380000000000      3.802540000000000
H      -3.053210000000000     -7.956600000000000      1.089000000000000
H      -2.368240000000000     -6.839190000000000     -0.163900000000000
H      -1.267030000000000     -7.706560000000000      0.976310000000000
C      -5.880330000000000     -0.069680000000000      3.930070000000000
C      -6.829950000000000      0.938580000000000      3.943920000000000
C      -7.974960000000000      0.423710000000000      3.354270000000000
C      -7.670870000000000     -0.870090000000000      2.992590000000000
N      -6.412820000000000     -1.158610000000000      3.353070000000000
C      -8.572390000000000     -1.877880000000000      2.301460000000000
N      -7.796030000000000     -3.084110000000000      1.942730000000000
C      -8.422060000000000     -4.217000000000000      1.238690000000000
H      -6.704960000000000      1.936320000000000      4.342040000000000
H      -4.872050000000000     -0.008910000000000      4.319670000000000
H      -8.914890000000000      0.935020000000000      3.199000000000000
H      -8.975160000000001     -1.411850000000000      1.382320000000000
H      -9.397449999999999     -2.130270000000000      2.998630000000000
C      -8.871440000000000     -3.772220000000000     -0.165930000000000
C      -7.380190000000000     -5.339840000000000      1.084430000000000
C      -9.620609999999999     -4.758530000000000      2.036580000000000
H      -8.001150000000001     -3.389780000000000     -0.743410000000000
H      -9.317510000000000     -4.622550000000000     -0.724430000000000
H      -9.634060000000000     -2.969420000000000     -0.109750000000000
H      -7.034820000000000     -5.695740000000000      2.078480000000000
H      -7.815860000000000     -6.206440000000000      0.538570000000000
H      -6.496970000000000     -4.982070000000000      0.512950000000000
H      -9.297090000000001     -5.075520000000000      3.051350000000000
H     -10.409010000000000     -3.986460000000000      2.138520000000000
H     -10.070910000000000     -5.632430000000000      1.518510000000000
