170

Mg      0.404670000000000     -0.297910000000000      0.196920000000000
C      -2.737750000000000     -1.068720000000000      1.523040000000000
C      -2.028800000000000      1.169650000000000      1.951570000000000
O      -1.857620000000000     -0.011040000000000      1.190530000000000
C      -4.200340000000000     -0.768830000000000      1.210850000000000
C      -1.732770000000000      0.987730000000000      3.437880000000000
H      -2.437070000000000     -1.933250000000000      0.892450000000000
H      -2.614400000000000     -1.404720000000000      2.570110000000000
H      -1.282820000000000      1.896500000000000      1.573400000000000
H      -3.014280000000000      1.643840000000000      1.768980000000000
H      -0.738550000000000      0.514460000000000      3.575380000000000
H      -1.727200000000000      1.981960000000000      3.931240000000000
H      -2.513110000000000      0.368570000000000      3.922200000000000
H      -4.317180000000000     -0.452240000000000      0.154990000000000
H      -4.799350000000000     -1.688820000000000      1.376580000000000
H      -4.588530000000000      0.021750000000000      1.882640000000000
H       0.153510000000000     -3.144330000000000      0.986170000000000
C       0.539790000000000     -2.279090000000000      2.966900000000000
C       0.783720000000000     -2.373970000000000      1.476570000000000
C       0.926040000000000     -3.591990000000000      3.625530000000000
H       1.143390000000000     -1.449740000000000      3.389670000000000
H      -0.530310000000000     -2.060780000000000      3.149330000000000
H       0.316170000000000     -4.412340000000000      3.188120000000000
H       2.001690000000000     -3.793900000000000      3.429810000000000
C       0.688480000000000     -3.532680000000000      5.125820000000000
H       1.859750000000000     -2.497690000000000      1.235290000000000
H       1.299520000000000     -2.722650000000000      5.578380000000000
H      -0.385910000000000     -3.342920000000000      5.335900000000000
H       0.980700000000000     -4.502680000000000      5.576190000000000
C       0.926120000000000      1.180160000000000     -4.454250000000000
C       2.192300000000000      1.599510000000000     -4.129600000000000
C       2.148660000000000      2.098240000000000     -2.833350000000000
C       0.898440000000000      1.969940000000000     -2.372890000000000
N       0.075570000000000      1.411430000000000     -3.369970000000000
C       0.333020000000000      2.397600000000000     -1.034890000000000
N       0.816180000000000      1.662820000000000      0.149320000000000
C       2.087390000000000      1.924250000000000      0.837150000000000
H       3.051280000000000      1.545040000000000     -4.784100000000000
H       0.614580000000000      0.739780000000000     -5.392560000000000
H       2.991490000000000      2.524300000000000     -2.315790000000000
H      -0.757710000000000      2.189300000000000     -1.083320000000000
H       0.428260000000000      3.488930000000000     -0.898370000000000
C       2.505360000000000      3.388770000000000      0.689430000000000
C       1.865690000000000      1.627340000000000      2.333560000000000
C       3.180260000000000      0.959600000000000      0.332790000000000
H       1.688820000000000      4.039320000000000      1.071030000000000
H       3.427850000000000      3.591870000000000      1.268200000000000
H       2.694910000000000      3.638170000000000     -0.370860000000000
H       1.543620000000000      0.576320000000000      2.476730000000000
H       2.799300000000000      1.780540000000000      2.916560000000000
H       1.072600000000000      2.280770000000000      2.755330000000000
H       2.906100000000000     -0.098500000000000      0.542240000000000
H       3.344070000000000      1.039790000000000     -0.750820000000000
H       4.144440000000000      1.167360000000000      0.843690000000000
C      -0.099830000000000     -1.750060000000000     -2.561480000000000
C      -2.048910000000000     -0.537870000000000     -2.011110000000000
O      -0.893150000000000     -1.195420000000000     -1.530550000000000
C       1.383510000000000     -1.618990000000000     -2.207670000000000
C      -3.123480000000000     -1.531260000000000     -2.400150000000000
H      -0.344410000000000     -2.827580000000000     -2.650080000000000
H      -0.253940000000000     -1.260270000000000     -3.547010000000000
H      -2.435010000000000      0.112800000000000     -1.201540000000000
H      -1.848580000000000      0.147320000000000     -2.850680000000000
H      -3.356930000000000     -2.189530000000000     -1.538690000000000
H      -4.034990000000000     -0.976620000000000     -2.704320000000000
H      -2.767420000000000     -2.142080000000000     -3.254170000000000
H       1.681110000000000     -0.558690000000000     -2.115860000000000
H       1.610530000000000     -2.119550000000000     -1.245080000000000
H       2.002570000000000     -2.083100000000000     -3.002770000000000
Na     -0.944470000000000      9.219500000000000     -2.241210000000000
C      -3.897930000000000     10.429600000000001     -2.224740000000000
C      -4.121260000000000      8.203530000000001     -1.518680000000000
O      -3.415830000000000      9.105660000000000     -2.349680000000000
C      -3.162680000000000     11.173060000000000     -1.113960000000000
C      -5.325970000000000      7.610590000000000     -2.245260000000000
H      -3.702280000000000     10.954560000000001     -3.183670000000000
H      -4.999340000000000     10.472960000000000     -2.068660000000000
H      -3.428840000000000      7.376030000000000     -1.254020000000000
H      -4.435890000000000      8.663819999999999     -0.555850000000000
H      -5.002570000000000      7.074150000000000     -3.161360000000000
H      -5.839770000000000      6.888380000000000     -1.576920000000000
H      -6.045220000000000      8.406990000000000     -2.526800000000000
H      -2.071790000000000     11.188330000000001     -1.319300000000000
H      -3.531470000000000     12.218489999999999     -1.060870000000000
H      -3.339300000000000     10.684960000000000     -0.133910000000000
C      -0.966680000000000      8.578260000000000      1.056540000000000
C       1.247490000000000      8.523540000000001      0.174590000000000
O      -0.142440000000000      8.574719999999999     -0.095370000000000
C      -0.771750000000000      9.803430000000001      1.950450000000000
C       1.685690000000000      7.239800000000000      0.878800000000000
H      -2.014650000000000      8.612590000000001      0.691720000000000
H      -0.882630000000000      7.630420000000000      1.626590000000000
H       1.759180000000000      8.538390000000000     -0.811640000000000
H       1.601480000000000      9.431749999999999      0.704800000000000
H       1.331400000000000      6.356940000000000      0.307270000000000
H       2.793910000000000      7.212420000000000      0.936840000000000
H       1.292920000000000      7.199460000000000      1.914800000000000
H      -0.891100000000000     10.733689999999999      1.356030000000000
H      -1.534720000000000      9.790649999999999      2.756930000000000
H       0.226680000000000      9.791410000000001      2.432180000000000
Na     -3.400840000000000      8.128220000000001     -4.532990000000000
C      -0.177240000000000      8.694910000000000     -5.117810000000000
C      -0.546270000000000      6.577380000000000     -4.188320000000000
O      -1.001740000000000      7.912530000000000     -4.278670000000000
C      -0.912830000000000      9.984579999999999     -5.462430000000000
C       0.623050000000000      6.436620000000000     -3.215460000000000
H       0.759940000000000      8.966490000000000     -4.586570000000000
H       0.055130000000000      8.180120000000001     -6.077090000000000
H      -1.388700000000000      5.970010000000000     -3.793220000000000
H      -0.299680000000000      6.147520000000000     -5.184210000000000
H       0.333940000000000      6.816740000000000     -2.214060000000000
H       0.900250000000000      5.365240000000000     -3.123350000000000
H       1.508540000000000      6.996580000000000     -3.579320000000000
H      -1.172720000000000     10.540110000000000     -4.535880000000000
H      -0.269200000000000     10.628330000000000     -6.097630000000000
H      -1.846240000000000      9.756360000000001     -6.018140000000000
C      -3.943090000000000      7.651880000000000     -7.767400000000000
C      -5.137260000000000      9.502350000000000     -7.051670000000000
O      -4.182780000000000      8.531969999999999     -6.696190000000000
C      -2.927230000000000      6.613740000000000     -7.309470000000000
C      -5.326760000000000     10.436500000000001     -5.863940000000000
H      -4.874700000000000      7.116840000000000     -8.059910000000000
H      -3.511140000000000      8.198010000000000     -8.635790000000000
H      -4.782880000000000     10.109930000000000     -7.914600000000000
H      -6.118200000000000      9.027310000000000     -7.278840000000000
H      -4.362220000000000     10.927289999999999     -5.612260000000000
H      -6.075920000000000     11.218310000000001     -6.106910000000000
H      -5.677980000000000      9.861980000000001     -4.979410000000000
H      -3.325200000000000      6.047340000000000     -6.439860000000000
H      -2.705650000000000      5.903680000000000     -8.132830000000000
H      -1.985400000000000      7.116320000000000     -7.006570000000000
Mg      0.194090000000000     16.675519999999999     -2.790060000000000
H      -1.443940000000000     17.796430000000001     -0.444690000000000
C      -2.570660000000000     18.596540000000001     -2.150230000000000
C      -1.268430000000000     18.280600000000000     -1.426730000000000
C      -3.375600000000000     17.345040000000001     -2.537680000000000
H      -3.182300000000000     19.263349999999999     -1.507500000000000
H      -2.321920000000000     19.140950000000000     -3.086980000000000
H      -4.301130000000000     17.684940000000001     -3.051550000000000
H      -2.794710000000000     16.722549999999998     -3.250860000000000
C      -3.776310000000000     16.479839999999999     -1.343660000000000
H      -0.661220000000000     19.197559999999999     -1.283120000000000
H      -2.880090000000000     16.038489999999999     -0.860280000000000
H      -4.342740000000000     17.080369999999998     -0.601620000000000
H      -4.418110000000000     15.643770000000000     -1.693980000000000
C      -1.132820000000000     15.745050000000001     -5.519690000000000
C      -0.866480000000000     14.672860000000000     -6.357170000000000
C       0.168850000000000     13.958349999999999     -5.774700000000000
C       0.476430000000000     14.608480000000000     -4.601910000000000
N      -0.307360000000000     15.693289999999999     -4.467390000000000
C       1.529100000000000     14.238090000000000     -3.577210000000000
N       1.355370000000000     15.058970000000000     -2.360260000000000
C       2.244870000000000     14.891670000000000     -1.197610000000000
H      -1.364670000000000     14.441070000000000     -7.287310000000000
H      -1.881410000000000     16.512720000000002     -5.680280000000000
H       0.636880000000000     13.060169999999999     -6.157120000000000
H       2.524700000000000     14.407880000000000     -4.037890000000000
H       1.404080000000000     13.169129999999999     -3.318410000000000
C       3.718330000000000     15.099069999999999     -1.592720000000000
C       1.863000000000000     15.937220000000000     -0.133650000000000
C       2.047720000000000     13.486700000000001     -0.594820000000000
H       3.863940000000000     16.111000000000001     -2.027660000000000
H       4.376250000000000     14.998680000000000     -0.702380000000000
H       4.043860000000000     14.341049999999999     -2.334250000000000
H       0.800270000000000     15.821140000000000      0.170470000000000
H       2.497660000000000     15.822740000000000      0.773430000000000
H       2.002140000000000     16.967549999999999     -0.525730000000000
H       0.983980000000000     13.340400000000001     -0.304240000000000
H       2.323350000000000     12.693940000000000     -1.319440000000000
H       2.680440000000000     13.351640000000000      0.308010000000000
