170

Mg     -0.093570000000000     -0.522820000000000     -0.091840000000000
C      -0.471970000000000     -1.002170000000000      3.041690000000000
C      -2.361070000000000     -1.781840000000000      1.813910000000000
O      -1.378310000000000     -0.781720000000000      1.978350000000000
C       0.330450000000000     -2.296760000000000      2.920100000000000
C      -3.400440000000000     -1.738040000000000      2.921790000000000
H       0.259660000000000     -0.175720000000000      2.988990000000000
H      -0.957070000000000     -0.892140000000000      4.032120000000000
H      -2.878680000000000     -1.557130000000000      0.855680000000000
H      -1.931900000000000     -2.796320000000000      1.681220000000000
H      -3.786520000000000     -0.702180000000000      3.026030000000000
H      -4.239440000000000     -2.418060000000000      2.667620000000000
H      -2.950650000000000     -2.068710000000000      3.879510000000000
H       0.726780000000000     -2.415690000000000      1.892960000000000
H       1.186630000000000     -2.262610000000000      3.621910000000000
H      -0.298800000000000     -3.170770000000000      3.180360000000000
H       0.986370000000000     -2.655570000000000     -1.113440000000000
C      -0.816220000000000     -2.277630000000000     -2.280140000000000
C      -0.081500000000000     -2.401030000000000     -0.961180000000000
C      -0.233540000000000     -1.133210000000000     -3.117140000000000
H      -0.717860000000000     -3.246050000000000     -2.809430000000000
H      -1.892040000000000     -2.067240000000000     -2.087050000000000
H      -0.438480000000000     -0.164020000000000     -2.616010000000000
H       0.866540000000000     -1.246170000000000     -3.217090000000000
C      -0.843120000000000     -1.120430000000000     -4.513220000000000
H      -0.562590000000000     -3.148030000000000     -0.298640000000000
H      -0.592150000000000     -2.070040000000000     -5.032570000000000
H      -1.946980000000000     -1.011750000000000     -4.460590000000000
H      -0.423950000000000     -0.275390000000000     -5.098650000000000
C      -1.136880000000000      2.491040000000000     -2.220840000000000
C      -2.014240000000000      1.815600000000000     -1.406360000000000
C      -1.424450000000000      1.703440000000000     -0.159360000000000
C      -0.212480000000000      2.275090000000000     -0.223350000000000
N       0.020570000000000      2.822900000000000     -1.494120000000000
C       0.800530000000000      2.339770000000000      0.893140000000000
N       1.381110000000000      1.016770000000000      1.174980000000000
C       2.727630000000000      0.713450000000000      0.628580000000000
H      -2.981700000000000      1.427650000000000     -1.704780000000000
H      -1.291670000000000      2.726180000000000     -3.262010000000000
H      -1.863170000000000      1.221440000000000      0.696780000000000
H       0.301580000000000      2.718330000000000      1.810290000000000
H       1.575840000000000      3.073420000000000      0.617640000000000
C       3.785340000000000      1.661250000000000      1.227110000000000
C       3.088170000000000     -0.725350000000000      1.048480000000000
C       2.755740000000000      0.784240000000000     -0.913270000000000
H       3.729050000000000      1.642600000000000      2.336180000000000
H       4.805550000000000      1.346630000000000      0.918520000000000
H       3.658280000000000      2.704050000000000      0.879560000000000
H       2.380420000000000     -1.453390000000000      0.601890000000000
H       4.110270000000000     -1.001620000000000      0.706780000000000
H       3.047640000000000     -0.834520000000000      2.153670000000000
H       2.076150000000000      0.026950000000000     -1.358640000000000
H       2.455810000000000      1.785270000000000     -1.277290000000000
H       3.782470000000000      0.585250000000000     -1.292050000000000
Na     -6.682420000000000     -6.239040000000000     14.934139999999999
C      -7.447500000000000     -8.715750000000000     16.803780000000000
C      -8.651630000000001     -6.897110000000000     17.666010000000000
O      -7.457390000000000     -7.320620000000000     17.036500000000000
C      -8.055400000000001     -9.042800000000000     15.443640000000000
C      -8.517790000000000     -6.938360000000000     19.186160000000001
H      -6.389290000000000     -9.052730000000000     16.803030000000000
H      -7.953400000000000     -9.290630000000000     17.611930000000001
H      -8.841360000000000     -5.846700000000000     17.358260000000001
H      -9.540260000000000     -7.480980000000000     17.337940000000000
H      -7.684190000000000     -6.286910000000000     19.520969999999998
H      -9.458220000000001     -6.572500000000000     19.648569999999999
H      -8.330180000000000     -7.974620000000000     19.535219999999999
H      -7.496450000000000     -8.521319999999999     14.638760000000000
H      -8.000340000000000    -10.136939999999999     15.266610000000000
H      -9.118930000000001     -8.730750000000000     15.405720000000001
C      -9.863479999999999     -5.771540000000000     13.922650000000001
C      -8.319940000000001     -4.628400000000000     12.509930000000001
O      -8.530550000000000     -5.336660000000000     13.719180000000000
C     -10.351010000000000     -6.777070000000000     12.878790000000000
C      -9.094560000000000     -3.313120000000000     12.428970000000000
H      -9.876360000000000     -6.295870000000000     14.901180000000000
H     -10.563090000000001     -4.918220000000000     14.035050000000000
H      -7.240180000000000     -4.366910000000000     12.482400000000000
H      -8.491800000000000     -5.267260000000000     11.619180000000000
H      -8.881750000000000     -2.690670000000000     13.323420000000000
H      -8.780570000000001     -2.758780000000000     11.519880000000001
H     -10.185079999999999     -3.497510000000000     12.351500000000000
H      -9.646179999999999     -7.632450000000000     12.813140000000001
H     -11.350770000000001     -7.156520000000000     13.177619999999999
H     -10.456650000000000     -6.300420000000000     11.883450000000000
Na     -5.665570000000000     -6.384570000000000     18.326950000000000
C      -3.911550000000000     -5.312400000000000     15.701599999999999
C      -5.344450000000000     -3.665790000000000     16.545529999999999
O      -5.126250000000000     -5.051340000000000     16.373909999999999
C      -3.565330000000000     -6.785740000000000     15.875840000000000
C      -5.875600000000000     -3.011160000000000     15.272190000000000
H      -4.025250000000000     -5.112690000000000     14.614459999999999
H      -3.064950000000000     -4.721830000000000     16.118440000000000
H      -6.119330000000000     -3.551020000000000     17.333590000000001
H      -4.440790000000000     -3.140160000000000     16.926040000000000
H      -6.809000000000000     -3.513910000000000     14.945580000000000
H      -6.096620000000000     -1.941670000000000     15.471280000000000
H      -5.125670000000000     -3.067050000000000     14.458290000000000
H      -4.383050000000000     -7.422930000000000     15.475970000000000
H      -2.627400000000000     -7.020970000000000     15.330330000000000
H      -3.421190000000000     -7.020100000000000     16.951250000000002
C      -2.979920000000000     -6.146710000000000     20.257050000000000
C      -3.637710000000000     -8.362970000000001     20.135030000000000
O      -3.851540000000000     -7.063310000000000     19.640680000000000
C      -3.280870000000000     -4.760210000000000     19.703849999999999
C      -4.587410000000000     -9.307270000000001     19.410360000000001
H      -3.142310000000000     -6.120880000000000     21.358290000000000
H      -1.920330000000000     -6.390830000000000     20.019050000000000
H      -2.596010000000000     -8.698530000000000     19.930779999999999
H      -3.863010000000000     -8.413800000000000     21.224160000000001
H      -4.386860000000000     -9.278890000000001     18.317920000000001
H      -4.447250000000000    -10.345850000000000     19.775410000000001
H      -5.640660000000000     -9.000190000000000     19.589530000000000
H      -4.334510000000000     -4.482110000000000     19.922650000000001
H      -2.605660000000000     -4.008900000000000     20.163039999999999
H      -3.130910000000000     -4.752430000000000     18.604350000000000
Mg     -0.484330000000000     -2.153180000000000     10.018219999999999
C      -3.334840000000000     -0.975700000000000     10.963730000000000
C      -3.522040000000000     -3.244810000000000     10.262090000000001
O      -2.958990000000000     -1.969460000000000     10.027440000000000
C      -2.928520000000000     -1.286400000000000     12.405030000000000
C      -5.011480000000000     -3.282790000000000      9.947939999999999
H      -2.785310000000000     -0.058680000000000     10.673909999999999
H      -4.408320000000000     -0.713400000000000     10.879450000000000
H      -3.015010000000000     -3.947720000000000      9.566030000000000
H      -3.299370000000000     -3.634670000000000     11.275900000000000
H      -5.184490000000000     -2.909330000000000      8.916600000000001
H      -5.376310000000000     -4.328040000000000     10.023400000000001
H      -5.578140000000000     -2.662120000000000     10.670600000000000
H      -1.864670000000000     -1.590190000000000     12.449560000000000
H      -3.071630000000000     -0.380110000000000     13.029719999999999
H      -3.557290000000000     -2.092670000000000     12.828600000000000
H       0.722980000000000     -3.295720000000000     12.066190000000001
C       0.668110000000000     -4.795760000000000     10.490040000000000
C       0.011660000000000     -3.713670000000000     11.324690000000000
C       1.824000000000000     -4.209980000000000      9.672240000000000
H       1.030330000000000     -5.587330000000000     11.177530000000001
H      -0.082480000000000     -5.228890000000000      9.792090000000000
H       1.424580000000000     -3.484660000000000      8.931150000000001
H       2.534710000000000     -3.674890000000000     10.337470000000000
C       2.583540000000000     -5.309620000000000      8.941450000000000
H      -0.889860000000000     -4.100160000000000     11.842440000000000
H       3.025780000000000     -6.009610000000000      9.682300000000000
H       1.906070000000000     -5.871330000000000      8.264160000000000
H       3.403940000000000     -4.862140000000000      8.342110000000000
C       1.035240000000000     -2.181560000000000      6.424850000000000
C      -0.220630000000000     -2.665570000000000      6.711120000000000
C      -0.881610000000000     -1.691970000000000      7.438280000000000
C      -0.052360000000000     -0.655660000000000      7.599710000000000
N       1.178490000000000     -0.890360000000000      6.955390000000000
C      -0.354320000000000      0.613400000000000      8.351720000000000
N      -0.459040000000000      0.372300000000000      9.802300000000001
C       0.713440000000000      0.730640000000000     10.639920000000000
H      -0.603020000000000     -3.637260000000000      6.425610000000000
H       1.804860000000000     -2.707730000000000      5.879330000000000
H      -1.889600000000000     -1.766810000000000      7.815130000000000
H      -1.318820000000000      1.022510000000000      7.982980000000000
H       0.425120000000000      1.356380000000000      8.115240000000000
C       0.966400000000000      2.252320000000000     10.607440000000000
C       0.391900000000000      0.340340000000000     12.095580000000000
C       1.981700000000000     -0.037550000000000     10.211510000000001
H       0.043650000000000      2.798420000000000     10.898210000000001
H       1.776510000000000      2.525640000000000     11.317349999999999
H       1.287170000000000      2.607450000000000      9.609859999999999
H       0.242750000000000     -0.754660000000000     12.184369999999999
H       1.225980000000000      0.619080000000000     12.777390000000000
H      -0.529870000000000      0.852120000000000     12.447200000000000
H       1.826290000000000     -1.133830000000000     10.299970000000000
H       2.264820000000000      0.196460000000000      9.167210000000001
H       2.840510000000000      0.238930000000000     10.861570000000000
