95

Mg      1.136590000000000      0.005850000000000     -0.155030000000000
H       3.247590000000000      0.733610000000000      1.918870000000000
C       1.674430000000000      2.148140000000000      2.520780000000000
C       2.457010000000000      1.372140000000000      1.477790000000000
C       1.018390000000000      1.254610000000000      3.584490000000000
H       2.380520000000000      2.841610000000000      3.021920000000000
H       0.891350000000000      2.752860000000000      2.015020000000000
H       1.789440000000000      0.654320000000000      4.115050000000000
H       0.536490000000000      1.932120000000000      4.319500000000000
C      -0.062370000000000      0.318850000000000      3.035190000000000
H       2.885990000000000      2.058990000000000      0.715160000000000
H       0.380690000000000     -0.479340000000000      2.406330000000000
H      -0.588530000000000     -0.164940000000000      3.886060000000000
H      -0.813850000000000      0.884070000000000      2.443940000000000
C       0.897310000000000     -3.065160000000000      0.626720000000000
C      -0.013190000000000     -4.037450000000000      0.243420000000000
C      -0.916970000000000     -3.426350000000000     -0.612170000000000
C      -0.531830000000000     -2.109570000000000     -0.702570000000000
N       0.566570000000000     -1.905390000000000      0.040570000000000
C      -1.180950000000000     -1.006750000000000     -1.514350000000000
N      -0.624330000000000      0.303460000000000     -1.121620000000000
C      -1.146690000000000      1.550280000000000     -1.710180000000000
H      -0.016870000000000     -5.074810000000000      0.546440000000000
H       1.745780000000000     -3.205050000000000      1.286150000000000
H      -1.764360000000000     -3.883390000000000     -1.105340000000000
H      -0.979890000000000     -1.215150000000000     -2.585860000000000
H      -2.267740000000000     -1.021050000000000     -1.316140000000000
C      -2.608770000000000      1.754360000000000     -1.266740000000000
C      -0.311750000000000      2.734760000000000     -1.190450000000000
C      -1.057810000000000      1.514470000000000     -3.246390000000000
H      -2.669890000000000      1.795520000000000     -0.156790000000000
H      -3.019210000000000      2.699950000000000     -1.679250000000000
H      -3.259010000000000      0.929570000000000     -1.620500000000000
H       0.750450000000000      2.637860000000000     -1.501110000000000
H      -0.704840000000000      3.695890000000000     -1.591840000000000
H      -0.349690000000000      2.784830000000000     -0.081980000000000
H      -0.005560000000000      1.363600000000000     -3.569530000000000
H      -1.680300000000000      0.695650000000000     -3.662020000000000
H      -1.428030000000000      2.469030000000000     -3.679160000000000
Na      3.060960000000000    -10.707350000000000      6.233860000000000
C       2.167060000000000    -13.774630000000000      6.860260000000000
C       0.725500000000000    -12.295290000000000      7.880930000000000
O       2.082150000000000    -12.634670000000000      7.688510000000000
C       3.631520000000000    -14.139690000000000      6.661560000000000
C       0.640650000000000    -11.057589999999999      8.762930000000001
H       1.661370000000000    -14.646760000000000      7.334080000000000
H       1.729680000000000    -13.567349999999999      5.857080000000000
H       0.235530000000000    -12.053410000000000      6.910200000000000
H       0.182980000000000    -13.119360000000000      8.398090000000000
H       1.160750000000000    -10.204739999999999      8.276990000000000
H      -0.423640000000000    -10.783659999999999      8.923730000000001
H       1.112370000000000    -11.258380000000001      9.748519999999999
H       4.105790000000000    -14.365600000000001      7.640260000000000
H       3.709980000000000    -15.035760000000000      6.009880000000000
H       4.173800000000000    -13.298000000000000      6.180690000000000
Na      2.850300000000000    -13.519959999999999     10.050649999999999
Mg      1.553510000000000     -5.884170000000000      7.036180000000000
H       0.500680000000000     -3.613820000000000      8.958550000000001
C       1.102790000000000     -2.387230000000000      7.245680000000000
C       1.270030000000000     -3.589200000000000      8.160360000000001
C      -0.267630000000000     -2.348190000000000      6.556120000000000
H       1.222320000000000     -1.471530000000000      7.861450000000000
H       1.902870000000000     -2.397520000000000      6.475180000000000
H      -1.077960000000000     -2.327480000000000      7.316950000000000
H      -0.317570000000000     -1.408610000000000      5.968540000000000
C      -0.500260000000000     -3.517630000000000      5.596950000000000
H       2.286390000000000     -3.595920000000000      8.609830000000001
H      -0.548570000000000     -4.478580000000000      6.147970000000000
H      -1.467500000000000     -3.369920000000000      5.069750000000000
H       0.308150000000000     -3.567910000000000      4.836420000000000
C      -1.153160000000000     -7.544880000000000      6.922860000000000
C      -1.561380000000000     -8.585270000000000      6.104180000000000
C      -0.523540000000000     -8.834020000000001      5.218910000000000
C       0.463340000000000     -7.922230000000000      5.521300000000000
N       0.080860000000000     -7.163260000000000      6.557370000000000
C       1.808520000000000     -7.748670000000000      4.842400000000000
N       2.445770000000000     -6.500550000000000      5.312700000000000
C       3.747520000000000     -6.064810000000000      4.776880000000000
H      -2.507450000000000     -9.107340000000001      6.147760000000000
H      -1.720940000000000     -7.102380000000000      7.731210000000000
H      -0.497610000000000     -9.581360000000000      4.437760000000000
H       2.431480000000000     -8.632330000000000      5.086540000000000
H       1.642820000000000     -7.687640000000000      3.750600000000000
C       3.608090000000000     -5.739850000000000      3.276450000000000
C       4.176550000000000     -4.783110000000000      5.513250000000000
C       4.821260000000000     -7.146500000000000      4.990540000000000
H       2.835230000000000     -4.954260000000000      3.124770000000000
H       4.570160000000000     -5.371110000000000      2.861400000000000
H       3.314050000000000     -6.635770000000000      2.693380000000000
H       4.295470000000000     -4.973530000000000      6.601340000000000
H       5.147320000000000     -4.409940000000000      5.117110000000000
H       3.419090000000000     -3.982150000000000      5.379110000000000
H       4.923810000000000     -7.381540000000000      6.071560000000000
H       4.563250000000000     -8.077769999999999      4.445660000000000
H       5.805080000000000     -6.797090000000000      4.609030000000000
