140

Mg     -0.627350000000000     -0.251730000000000      0.617190000000000
H      -2.267720000000000      2.131920000000000      1.460220000000000
C      -1.084900000000000      1.763230000000000      3.282290000000000
C      -1.919300000000000      1.294770000000000      2.098590000000000
C       0.244650000000000      2.424620000000000      2.879640000000000
H      -1.696770000000000      2.463510000000000      3.886710000000000
H      -0.840750000000000      0.875570000000000      3.905300000000000
H       0.758770000000000      2.741560000000000      3.813210000000000
H       0.898670000000000      1.691370000000000      2.361430000000000
C       0.073980000000000      3.647830000000000      1.981020000000000
H      -2.779430000000000      0.673930000000000      2.422710000000000
H      -0.343920000000000      3.353240000000000      0.995870000000000
H      -0.593030000000000      4.392480000000000      2.462590000000000
H       1.065560000000000      4.115910000000000      1.802520000000000
C       2.371160000000000     -0.739610000000000      1.546830000000000
C       3.471440000000000     -1.230390000000000      0.861970000000000
C       3.051680000000000     -1.500370000000000     -0.431300000000000
C       1.723140000000000     -1.150110000000000     -0.486200000000000
N       1.322100000000000     -0.700180000000000      0.712550000000000
C       0.784950000000000     -1.253490000000000     -1.672050000000000
N      -0.473100000000000     -0.533960000000000     -1.386920000000000
C      -1.539880000000000     -0.453110000000000     -2.401480000000000
H       4.465070000000000     -1.381390000000000      1.259220000000000
H       2.345740000000000     -0.439080000000000      2.587730000000000
H       3.645980000000000     -1.897670000000000     -1.243000000000000
H       0.592240000000000     -2.331640000000000     -1.850610000000000
H       1.278490000000000     -0.798290000000000     -2.549830000000000
C      -1.970240000000000     -1.855790000000000     -2.867160000000000
C      -2.758370000000000      0.261850000000000     -1.787830000000000
C      -1.040990000000000      0.374650000000000     -3.601830000000000
H      -2.328750000000000     -2.457810000000000     -2.005030000000000
H      -2.790250000000000     -1.779380000000000     -3.612860000000000
H      -1.129000000000000     -2.391140000000000     -3.352980000000000
H      -2.482010000000000      1.277170000000000     -1.430140000000000
H      -3.568540000000000      0.370200000000000     -2.543810000000000
H      -3.163460000000000     -0.313560000000000     -0.927970000000000
H      -0.743000000000000      1.392630000000000     -3.266880000000000
H      -0.165090000000000     -0.102350000000000     -4.085630000000000
H      -1.834010000000000      0.473360000000000     -4.372550000000000
Na    -12.363250000000001     -7.927750000000000     -4.167270000000000
C     -13.117570000000001     -4.966260000000000     -5.091700000000000
C     -12.407719999999999     -4.769000000000000     -2.864540000000000
O     -13.071850000000000     -5.577620000000000     -3.817010000000000
C     -11.887029999999999     -5.334000000000000     -5.914710000000000
C     -13.386570000000001     -3.839240000000000     -2.151830000000000
H     -14.016740000000000     -5.348240000000000     -5.620050000000000
H     -13.239970000000000     -3.861290000000000     -5.034350000000000
H     -11.950749999999999     -5.443410000000000     -2.109250000000000
H     -11.569490000000000     -4.185900000000000     -3.306450000000000
H     -14.174970000000000     -4.426350000000000     -1.636540000000000
H     -12.839760000000000     -3.240260000000000     -1.393700000000000
H     -13.865399999999999     -3.146260000000000     -2.873860000000000
H     -11.817399999999999     -6.436020000000000     -6.028860000000000
H     -11.964140000000000     -4.874140000000000     -6.921750000000000
H     -10.963900000000001     -4.962220000000000     -5.425380000000000
C      -9.149260000000000     -7.139130000000000     -3.566840000000000
C      -9.457240000000001     -9.499129999999999     -3.707460000000000
O     -10.062320000000000     -8.220760000000000     -3.622470000000000
C      -8.281630000000000     -6.999860000000000     -4.818040000000000
C      -8.619100000000000     -9.860500000000000     -2.481520000000000
H      -9.761690000000000     -6.215680000000000     -3.498540000000000
H      -8.540710000000001     -7.160270000000000     -2.639660000000000
H     -10.286949999999999    -10.236620000000000     -3.757780000000000
H      -8.889860000000001     -9.628590000000001     -4.652250000000000
H      -9.224550000000001     -9.740640000000001     -1.558560000000000
H      -8.288850000000000    -10.917260000000001     -2.562260000000000
H      -7.711340000000000     -9.227069999999999     -2.419720000000000
H      -8.921410000000000     -6.952900000000000     -5.724190000000000
H      -7.689660000000000     -6.064390000000000     -4.748280000000000
H      -7.567590000000000     -7.843400000000000     -4.905110000000000
Na    -15.148990000000000     -6.222380000000000     -2.818890000000000
C     -14.942610000000000     -9.429570000000000     -3.678750000000000
C     -14.057700000000001     -9.027690000000000     -1.549400000000000
O     -14.306609999999999     -8.493220000000001     -2.833670000000000
C     -15.503780000000001     -8.692539999999999     -4.888430000000000
C     -12.822160000000000     -9.925549999999999     -1.534360000000000
H     -14.205850000000000    -10.176710000000000     -4.043900000000000
H     -15.795480000000000     -9.938570000000000     -3.175990000000000
H     -13.860620000000001     -8.170360000000001     -0.870580000000000
H     -14.945460000000001     -9.551600000000001     -1.131250000000000
H     -11.937680000000000     -9.363650000000000     -1.898830000000000
H     -12.625579999999999    -10.264590000000000     -0.495700000000000
H     -12.976369999999999    -10.821130000000000     -2.170060000000000
H     -14.689980000000000     -8.160819999999999     -5.426570000000000
H     -15.981320000000000     -9.414820000000001     -5.583400000000000
H     -16.264720000000001     -7.951520000000000     -4.565970000000000
C     -18.399139999999999     -6.547870000000000     -2.254190000000000
C     -18.066610000000001     -5.055520000000000     -3.993220000000000
O     -17.452169999999999     -5.972870000000000     -3.121450000000000
C     -17.668209999999998     -7.504810000000000     -1.321860000000000
C     -16.996569999999998     -4.494900000000000     -4.920510000000000
H     -18.893090000000001     -5.769000000000000     -1.630430000000000
H     -19.153060000000000     -7.132730000000000     -2.827340000000000
H     -18.836539999999999     -5.558870000000000     -4.620340000000000
H     -18.511710000000001     -4.207700000000000     -3.425290000000000
H     -16.532319999999999     -5.319470000000000     -5.502790000000000
H     -17.444759999999999     -3.764320000000000     -5.625400000000000
H     -16.206119999999999     -3.986290000000000     -4.326960000000000
H     -16.903890000000001     -6.954220000000000     -0.731880000000000
H     -18.385690000000000     -7.985530000000000     -0.625210000000000
H     -17.160660000000000     -8.293939999999999     -1.914350000000000
Mg     -7.524200000000000     -2.078300000000000      1.608010000000000
H      -4.915070000000000     -3.480700000000000      0.741690000000000
C      -5.993310000000000     -3.409680000000000     -1.158940000000000
C      -5.942390000000000     -3.612040000000000      0.343950000000000
C      -5.130590000000000     -4.463100000000000     -1.847280000000000
H      -7.047830000000000     -3.495570000000000     -1.501230000000000
H      -5.623490000000000     -2.388420000000000     -1.398510000000000
H      -4.082900000000000     -4.373130000000000     -1.486400000000000
H      -5.513870000000000     -5.475540000000000     -1.592470000000000
C      -5.152150000000000     -4.290590000000000     -3.358380000000000
H      -6.362310000000000     -4.597290000000000      0.636510000000000
H      -6.188990000000000     -4.392510000000000     -3.740880000000000
H      -4.757320000000000     -3.291350000000000     -3.636420000000000
H      -4.516180000000000     -5.072470000000000     -3.822760000000000
C      -6.684590000000000     -1.566010000000000      4.622420000000000
C      -7.136980000000000     -0.655360000000000      5.563040000000000
C      -8.114789999999999      0.110530000000000      4.945950000000000
C      -8.206950000000001     -0.354600000000000      3.652730000000000
N      -7.349710000000000     -1.369230000000000      3.473270000000000
C      -9.122380000000000      0.144230000000000      2.548560000000000
N      -8.776759999999999     -0.514790000000000      1.270920000000000
C      -9.497230000000000     -0.197150000000000      0.025300000000000
H      -6.796580000000000     -0.561180000000000      6.585190000000000
H      -5.924190000000000     -2.321850000000000      4.773280000000000
H      -8.684810000000001      0.917370000000000      5.385630000000000
H      -8.983930000000001      1.237500000000000      2.449100000000000
H     -10.166480000000000     -0.086720000000000      2.842820000000000
C      -9.241940000000000      1.271710000000000     -0.362600000000000
C      -8.959510000000000     -1.099180000000000     -1.100540000000000
C     -11.005970000000000     -0.453380000000000      0.187210000000000
H      -8.151339999999999      1.450960000000000     -0.488010000000000
H      -9.751220000000000      1.521370000000000     -1.317680000000000
H      -9.623170000000000      1.965790000000000      0.413370000000000
H      -9.132050000000000     -2.170610000000000     -0.862960000000000
H      -9.470420000000001     -0.871600000000000     -2.062790000000000
H      -7.868940000000000     -0.941940000000000     -1.244270000000000
H     -11.188850000000000     -1.512560000000000      0.469570000000000
H     -11.440410000000000      0.204130000000000      0.967750000000000
H     -11.540559999999999     -0.243630000000000     -0.764230000000000
