140

Mg     -0.452500000000000      0.041050000000000     -0.858760000000000
H      -3.415000000000000      0.159310000000000     -0.188200000000000
C      -3.221340000000000     -1.924780000000000     -0.865290000000000
C      -2.929560000000000     -0.435570000000000     -0.988340000000000
C      -2.638330000000000     -2.563860000000000      0.406550000000000
H      -4.320210000000000     -2.073190000000000     -0.902560000000000
H      -2.764700000000000     -2.439380000000000     -1.738400000000000
H      -2.919140000000000     -3.639800000000000      0.402450000000000
H      -1.529610000000000     -2.498590000000000      0.395110000000000
C      -3.151890000000000     -1.934040000000000      1.700040000000000
H      -3.228120000000000     -0.045560000000000     -1.982770000000000
H      -2.803380000000000     -0.883960000000000      1.789150000000000
H      -4.260810000000000     -1.963380000000000      1.732640000000000
H      -2.751580000000000     -2.498790000000000      2.568750000000000
C       1.329890000000000     -2.546880000000000     -0.381120000000000
C       2.631930000000000     -2.690740000000000      0.069520000000000
C       3.110420000000000     -1.416660000000000      0.333780000000000
C       2.077080000000000     -0.552720000000000      0.051150000000000
N       1.015140000000000     -1.241850000000000     -0.389360000000000
C       2.072590000000000      0.959430000000000      0.171120000000000
N       0.694970000000000      1.472140000000000      0.016880000000000
C       0.410760000000000      2.915410000000000      0.119450000000000
H       3.175810000000000     -3.617300000000000      0.186600000000000
H       0.665150000000000     -3.345130000000000     -0.687240000000000
H       4.092790000000000     -1.150250000000000      0.698680000000000
H       2.738260000000000      1.360030000000000     -0.620920000000000
H       2.455830000000000      1.232660000000000      1.171580000000000
C       1.251500000000000      3.719450000000000     -0.888900000000000
C      -1.082070000000000      3.148950000000000     -0.179420000000000
C       0.701250000000000      3.394550000000000      1.554990000000000
H       1.046480000000000      3.375980000000000     -1.925370000000000
H       1.008580000000000      4.802040000000000     -0.820250000000000
H       2.335830000000000      3.608370000000000     -0.683000000000000
H      -1.721300000000000      2.575280000000000      0.525880000000000
H      -1.336660000000000      4.227930000000000     -0.077210000000000
H      -1.332520000000000      2.831440000000000     -1.214200000000000
H       0.085320000000000      2.820300000000000      2.281680000000000
H       1.769290000000000      3.257030000000000      1.818430000000000
H       0.465240000000000      4.473820000000000      1.667860000000000
Na      0.101710000000000     -8.513400000000001      0.502230000000000
C       2.072490000000000    -10.810680000000000     -0.530110000000000
C       0.690070000000000    -11.867260000000000      1.043490000000000
O       1.349170000000000    -10.669680000000000      0.677560000000000
C       1.196460000000000    -10.465690000000000     -1.730170000000000
C       1.581300000000000    -12.739990000000001      1.923430000000000
H       2.923010000000000    -10.096980000000000     -0.502560000000000
H       2.522950000000000    -11.822120000000000     -0.647230000000000
H      -0.215130000000000    -11.591070000000000      1.625380000000000
H       0.328420000000000    -12.444070000000000      0.163250000000000
H       1.872410000000000    -12.194360000000000      2.844710000000000
H       1.026150000000000    -13.654880000000000      2.216830000000000
H       2.497890000000000    -13.041430000000000      1.375710000000000
H       0.811380000000000     -9.428710000000001     -1.638000000000000
H       1.795460000000000    -10.543080000000000     -2.661240000000000
H       0.338660000000000    -11.165010000000001     -1.801260000000000
C      -2.655850000000000    -10.150990000000000     -0.567110000000000
C      -3.124230000000000     -7.865440000000000     -0.079590000000000
O      -2.204830000000000     -8.939850000000000      0.013440000000000
C      -2.889030000000000    -10.062760000000001     -2.076120000000000
C      -4.426320000000000     -8.108390000000000      0.683200000000000
H      -1.845580000000000    -10.893920000000000     -0.412280000000000
H      -3.538230000000000    -10.560420000000001     -0.033980000000000
H      -2.633150000000000     -6.988840000000000      0.395070000000000
H      -3.308430000000000     -7.565740000000000     -1.131870000000000
H      -4.202300000000000     -8.378850000000000      1.735910000000000
H      -5.037140000000000     -7.181600000000000      0.670410000000000
H      -5.023950000000000     -8.912070000000000      0.207600000000000
H      -1.977980000000000     -9.679810000000000     -2.582280000000000
H      -3.120690000000000    -11.074970000000000     -2.469020000000000
H      -3.751750000000000     -9.407000000000000     -2.310250000000000
Na      2.553050000000000     -9.963839999999999      2.634120000000000
C       1.633940000000000     -6.759700000000000      2.421120000000000
C       0.206570000000000     -8.010180000000000      3.791510000000000
O       1.080160000000000     -8.033270000000000      2.680760000000000
C       2.817970000000000     -6.926520000000000      1.477210000000000
C      -1.168640000000000     -7.458170000000000      3.422300000000000
H       0.884050000000000     -6.111020000000000      1.919520000000000
H       2.014430000000000     -6.270210000000000      3.345710000000000
H       0.070940000000000     -9.061769999999999      4.124200000000000
H       0.641840000000000     -7.468280000000000      4.660260000000000
H      -1.606170000000000     -8.050300000000000      2.592340000000000
H      -1.841920000000000     -7.525720000000000      4.302430000000000
H      -1.097990000000000     -6.394110000000000      3.117200000000000
H       2.491800000000000     -7.412470000000000      0.532800000000000
H       3.253920000000000     -5.934310000000000      1.238360000000000
H       3.600420000000000     -7.554140000000000      1.952470000000000
C       5.057440000000000     -9.136350000000000      4.645900000000000
C       5.918500000000000    -10.017469999999999      2.686440000000000
O       4.753940000000000     -9.585970000000000      3.347540000000000
C       3.757990000000000     -8.714480000000000      5.318380000000000
C       5.529320000000000    -10.463509999999999      1.283560000000000
H       5.511070000000000     -9.951280000000001      5.254120000000000
H       5.729960000000000     -8.250170000000001      4.607760000000000
H       6.652220000000000     -9.185449999999999      2.592110000000000
H       6.372740000000000    -10.887180000000001      3.212610000000000
H       5.071770000000000     -9.614960000000000      0.731240000000000
H       6.426060000000000    -10.811790000000000      0.730250000000000
H       4.792970000000000    -11.294480000000000      1.338350000000000
H       3.058840000000000     -9.576760000000000      5.373380000000000
H       3.959740000000000     -8.346259999999999      6.345500000000000
H       3.277760000000000     -7.902320000000000      4.734250000000000
Mg     -2.908460000000000    -11.069660000000001      5.771150000000000
H      -1.294050000000000     -9.852690000000001      8.225930000000000
C      -3.194400000000000    -10.291589999999999      9.221579999999999
C      -2.380850000000000     -9.876370000000000      8.006130000000001
C      -2.809850000000000    -11.681380000000001      9.747230000000000
H      -3.020350000000000     -9.542160000000001     10.021770000000000
H      -4.274340000000000    -10.281430000000000      8.961790000000001
H      -1.731920000000000    -11.700880000000000     10.018700000000001
H      -3.404720000000000    -11.871520000000000     10.665590000000000
C      -3.104450000000000    -12.806490000000000      8.753090000000000
H      -2.715380000000000     -8.883190000000001      7.636780000000000
H      -2.476040000000000    -12.707770000000000      7.845050000000000
H      -2.876670000000000    -13.784210000000000      9.229770000000000
H      -4.176690000000000    -12.799750000000000      8.462090000000000
C      -0.869590000000000    -13.423140000000000      5.139850000000000
C      -0.977630000000000    -14.545780000000001      4.335530000000000
C      -2.248160000000000    -14.525029999999999      3.780430000000000
C      -2.867460000000000    -13.403330000000000      4.286270000000000
N      -2.024430000000000    -12.740250000000000      5.089630000000000
C      -4.279000000000000    -12.917770000000001      4.015000000000000
N      -4.614680000000000    -11.824190000000000      4.951550000000000
C      -5.946310000000000    -11.193809999999999      4.939210000000000
H      -0.215750000000000    -15.295000000000000      4.168290000000000
H      -0.003940000000000    -13.127789999999999      5.718300000000000
H      -2.674370000000000    -15.249940000000000      3.100490000000000
H      -4.327250000000000    -12.573700000000001      2.961030000000000
H      -4.974880000000000    -13.763000000000000      4.174230000000000
C      -7.015620000000000    -12.227639999999999      5.344170000000000
C      -5.955950000000000    -10.054489999999999      5.973790000000000
C      -6.266920000000000    -10.611820000000000      3.551570000000000
H      -6.784450000000000    -12.644729999999999      6.349190000000000
H      -8.022440000000000    -11.759639999999999      5.381930000000000
H      -7.063270000000000    -13.066300000000000      4.620510000000000
H      -5.199540000000000     -9.282200000000000      5.717240000000000
H      -6.955020000000000     -9.565730000000000      6.009800000000000
H      -5.726480000000000    -10.444979999999999      6.987880000000000
H      -5.498050000000000     -9.865910000000000      3.260400000000000
H      -6.300020000000000    -11.410060000000000      2.781870000000000
H      -7.260020000000000    -10.112670000000000      3.560120000000000
