155

Mg     -0.293680000000000      0.411860000000000      0.668620000000000
C       0.967720000000000     -2.474200000000000     -1.402720000000000
C      -1.337220000000000     -2.552510000000000     -1.388630000000000
O      -0.187500000000000     -2.308030000000000     -0.603630000000000
C       2.187110000000000     -2.644050000000000     -0.509340000000000
C      -2.588460000000000     -2.285590000000000     -0.562610000000000
H       0.908040000000000     -3.386540000000000     -2.037180000000000
H       1.118970000000000     -1.584810000000000     -2.048910000000000
H      -1.361090000000000     -1.894590000000000     -2.282790000000000
H      -1.367170000000000     -3.613350000000000     -1.716000000000000
H      -2.621700000000000     -1.227360000000000     -0.233550000000000
H      -3.492020000000000     -2.494380000000000     -1.173700000000000
H      -2.599480000000000     -2.943040000000000      0.331470000000000
H       2.061310000000000     -3.527510000000000      0.148740000000000
H       3.096680000000000     -2.769690000000000     -1.132600000000000
H       2.330960000000000     -1.760150000000000      0.128120000000000
H      -2.285530000000000     -1.425910000000000      2.365230000000000
C      -2.434030000000000      0.741120000000000      2.736250000000000
C      -1.638640000000000     -0.542520000000000      2.530890000000000
C      -3.343430000000000      1.044640000000000      1.537610000000000
H      -3.044210000000000      0.617730000000000      3.653650000000000
H      -1.727580000000000      1.589280000000000      2.879030000000000
H      -2.732050000000000      1.231070000000000      0.626910000000000
H      -4.012600000000000      0.179250000000000      1.344760000000000
C      -4.209860000000000      2.271000000000000      1.813780000000000
H      -0.925640000000000     -0.715160000000000      3.362670000000000
H      -4.842830000000000      2.092460000000000      2.709360000000000
H      -3.575160000000000      3.164580000000000      1.989880000000000
H      -4.875030000000000      2.468470000000000      0.946610000000000
C      -1.504600000000000      0.666870000000000     -2.242060000000000
C      -0.906850000000000      0.975980000000000     -3.451990000000000
C       0.434080000000000      1.208260000000000     -3.184160000000000
C       0.602090000000000      1.016880000000000     -1.833020000000000
N      -0.575960000000000      0.682560000000000     -1.281290000000000
C       1.867640000000000      1.168260000000000     -1.010520000000000
N       1.700970000000000      0.571820000000000      0.335280000000000
C       2.637460000000000      0.945810000000000      1.413640000000000
H      -1.393050000000000      1.027310000000000     -4.414440000000000
H      -2.552680000000000      0.430610000000000     -2.086690000000000
H       1.204230000000000      1.476100000000000     -3.895490000000000
H       2.702570000000000      0.646680000000000     -1.521380000000000
H       2.081000000000000      2.253620000000000     -0.951550000000000
C       2.384260000000000      2.387360000000000      1.889390000000000
C       2.416450000000000     -0.004880000000000      2.608290000000000
C       4.092650000000000      0.787890000000000      0.928880000000000
H       1.351450000000000      2.490010000000000      2.286870000000000
H       3.098420000000000      2.653240000000000      2.699460000000000
H       2.522260000000000      3.118320000000000      1.069100000000000
H       2.597800000000000     -1.062420000000000      2.323450000000000
H       3.108340000000000      0.243340000000000      3.443510000000000
H       1.376710000000000      0.076460000000000      2.988240000000000
H       4.267750000000000     -0.251310000000000      0.574080000000000
H       4.309970000000000      1.484220000000000      0.092790000000000
H       4.809720000000000      1.004160000000000      1.748610000000000
Na     -4.086820000000000      8.362230000000000     -5.216840000000000
C      -2.400320000000000     11.063639999999999     -5.450800000000000
C      -3.845380000000000     11.064679999999999     -7.298770000000000
O      -3.065610000000000     10.276529999999999     -6.419660000000000
C      -3.269210000000000     11.247249999999999     -4.210490000000000
C      -3.033420000000000     11.501170000000000     -8.515730000000000
H      -1.475990000000000     10.525390000000000     -5.151970000000000
H      -2.068170000000000     12.048040000000000     -5.850870000000000
H      -4.694640000000000     10.440020000000001     -7.649090000000000
H      -4.297760000000000     11.948180000000001     -6.795990000000000
H      -2.654620000000000     10.616550000000000     -9.068429999999999
H      -3.680620000000000     12.091670000000001     -9.197400000000000
H      -2.173760000000000     12.131399999999999     -8.208119999999999
H      -3.532610000000000     10.259760000000000     -3.777040000000000
H      -2.711780000000000     11.834120000000000     -3.451160000000000
H      -4.201850000000000     11.791140000000000     -4.464120000000000
C      -7.024440000000000      9.982220000000000     -4.964210000000000
C      -7.219980000000000      7.708910000000000     -4.273860000000000
O      -6.424470000000000      8.700720000000000     -4.899170000000000
C      -7.293310000000000     10.607710000000001     -3.595030000000000
C      -8.521030000000000      7.409680000000000     -5.018670000000000
H      -6.296650000000000     10.643120000000000     -5.479990000000000
H      -7.929590000000000      9.981540000000001     -5.605340000000000
H      -6.621200000000000      6.772950000000000     -4.285480000000000
H      -7.396360000000000      7.933150000000000     -3.201500000000000
H      -8.304560000000000      7.168530000000000     -6.080680000000000
H      -9.022080000000001      6.539370000000000     -4.545630000000000
H      -9.217910000000000      8.270189999999999     -4.964120000000000
H      -6.362030000000000     10.620050000000001     -2.990470000000000
H      -7.646380000000000     11.651059999999999     -3.734600000000000
H      -8.086000000000000     10.054720000000000     -3.051970000000000
Na     -1.732190000000000      8.854950000000001     -7.810820000000000
C      -2.298420000000000      6.077960000000000     -6.064450000000000
C      -3.817840000000000      6.342860000000000     -7.825360000000000
O      -2.984430000000000      6.996640000000000     -6.889750000000000
C      -1.168150000000000      6.810730000000000     -5.352170000000000
C      -5.131330000000000      5.883070000000000     -7.195940000000000
H      -2.985120000000000      5.672390000000000     -5.290950000000000
H      -1.839180000000000      5.249450000000000     -6.649200000000000
H      -4.063480000000000      7.081900000000000     -8.617970000000000
H      -3.298530000000000      5.504080000000000     -8.339480000000000
H      -5.659630000000000      6.746630000000000     -6.742020000000000
H      -5.780750000000000      5.440190000000000     -7.979900000000000
H      -4.949030000000000      5.113480000000000     -6.418490000000000
H      -1.573100000000000      7.653450000000000     -4.751760000000000
H      -0.633080000000000      6.112410000000000     -4.675400000000000
H      -0.445840000000000      7.212210000000000     -6.093270000000000
C       0.894770000000000      7.447430000000000     -9.261870000000000
C       1.594570000000000      9.256600000000001     -7.997580000000000
O       0.505790000000000      8.432230000000001     -8.335330000000001
C      -0.330210000000000      6.611120000000000     -9.607030000000000
C       1.115500000000000     10.277110000000000     -6.973800000000000
H       1.271560000000000      7.910770000000000    -10.201599999999999
H       1.660510000000000      6.771720000000000     -8.819150000000000
H       2.413500000000000      8.661870000000000     -7.533840000000000
H       1.964080000000000      9.809120000000000     -8.890730000000000
H       0.739530000000000      9.754940000000000     -6.067980000000000
H       1.949950000000000     10.948130000000001     -6.682340000000000
H       0.292360000000000     10.889230000000000     -7.402230000000000
H      -1.119270000000000      7.254980000000000    -10.052270000000000
H      -0.060430000000000      5.815870000000000    -10.332300000000000
H      -0.733490000000000      6.136670000000000     -8.688520000000000
Mg     -0.873860000000000      9.014450000000000      1.588030000000000
H      -1.628230000000000     11.872840000000000      2.437010000000000
C       0.546140000000000     12.073130000000001      2.215580000000000
C      -0.695410000000000     11.328200000000001      2.687720000000000
C       0.638370000000000     12.202320000000000      0.686220000000000
H       0.560090000000000     13.077540000000001      2.687690000000000
H       1.439510000000000     11.508979999999999      2.561100000000000
H       1.570880000000000     12.759980000000001      0.450330000000000
H       0.711910000000000     11.196260000000001      0.221450000000000
C      -0.540570000000000     12.947380000000001      0.061800000000000
H      -0.657160000000000     11.146739999999999      3.781220000000000
H      -1.480940000000000     12.372090000000000      0.189750000000000
H      -0.652380000000000     13.951760000000000      0.520990000000000
H      -0.363690000000000     13.068600000000000     -1.027990000000000
C       1.460750000000000      8.396649999999999     -0.473900000000000
C       1.565400000000000      7.466700000000000     -1.495450000000000
C       0.372040000000000      6.761010000000000     -1.522450000000000
C      -0.416190000000000      7.303160000000000     -0.531930000000000
N       0.254510000000000      8.276529999999999      0.101360000000000
C      -1.827510000000000      6.905390000000000     -0.143140000000000
N      -2.384510000000000      7.900680000000000      0.797980000000000
C      -3.751930000000000      7.761230000000000      1.329450000000000
H       2.416660000000000      7.315360000000000     -2.144670000000000
H       2.219810000000000      9.107559999999999     -0.172270000000000
H       0.105990000000000      5.955470000000000     -2.193030000000000
H      -1.780870000000000      5.897220000000000      0.318270000000000
H      -2.448570000000000      6.880180000000000     -1.058540000000000
C      -3.931620000000000      6.412020000000000      2.047940000000000
C      -4.004690000000000      8.899270000000000      2.335400000000000
C      -4.769150000000000      7.891090000000000      0.178710000000000
H      -3.199230000000000      6.313510000000000      2.877590000000000
H      -4.956940000000000      6.329830000000000      2.469350000000000
H      -3.792090000000000      5.566460000000000      1.344500000000000
H      -3.876230000000000      9.890910000000000      1.850070000000000
H      -5.040370000000000      8.842350000000000      2.738930000000000
H      -3.296360000000000      8.835340000000000      3.189080000000000
H      -4.642110000000000      8.868630000000000     -0.336650000000000
H      -4.638170000000000      7.082940000000000     -0.569200000000000
H      -5.809680000000000      7.828710000000000      0.562340000000000
