110

Mg     -0.714780000000000      0.279330000000000      0.279020000000000
C       3.025440000000000      0.300870000000000     -0.086660000000000
C       2.504780000000000     -0.654870000000000      1.946740000000000
O       2.176260000000000      0.380120000000000      1.041840000000000
C       2.991130000000000      1.618450000000000     -0.846100000000000
C       1.537000000000000     -0.635150000000000      3.122610000000000
H       4.086110000000000      0.126450000000000      0.201220000000000
H       2.689440000000000     -0.511060000000000     -0.764210000000000
H       2.443110000000000     -1.650250000000000      1.458880000000000
H       3.529790000000000     -0.510340000000000      2.348730000000000
H       0.497620000000000     -0.807220000000000      2.777240000000000
H       1.807120000000000     -1.436230000000000      3.842850000000000
H       1.588710000000000      0.345520000000000      3.639690000000000
H       3.321270000000000      2.449020000000000     -0.190070000000000
H       3.653000000000000      1.558950000000000     -1.734880000000000
H       1.973300000000000      1.842460000000000     -1.194950000000000
H      -0.639910000000000      1.517580000000000      3.217190000000000
C      -2.627180000000000      0.886510000000000      2.499750000000000
C      -1.282050000000000      1.579350000000000      2.317350000000000
C      -2.460630000000000     -0.596400000000000      2.858190000000000
H      -3.171010000000000      1.411740000000000      3.309070000000000
H      -3.211400000000000      0.968110000000000      1.555970000000000
H      -1.973010000000000     -1.143560000000000      2.021030000000000
H      -1.825610000000000     -0.694750000000000      3.764250000000000
C      -3.815710000000000     -1.237570000000000      3.148890000000000
H      -1.407170000000000      2.628420000000000      1.980160000000000
H      -4.306590000000000     -0.714250000000000      3.997430000000000
H      -4.475140000000000     -1.181980000000000      2.256810000000000
H      -3.678390000000000     -2.304240000000000      3.425910000000000
C       0.322110000000000     -2.702220000000000      0.488470000000000
C       0.867400000000000     -3.541840000000000     -0.466560000000000
C       0.873160000000000     -2.837520000000000     -1.661700000000000
C       0.347510000000000     -1.597160000000000     -1.383590000000000
N       0.030510000000000     -1.527050000000000     -0.083780000000000
C       0.100490000000000     -0.445750000000000     -2.342120000000000
N      -0.176210000000000      0.808070000000000     -1.603300000000000
C      -0.819840000000000      1.935090000000000     -2.307730000000000
H       1.218360000000000     -4.551220000000000     -0.309000000000000
H       0.167410000000000     -2.935580000000000      1.536160000000000
H       1.229170000000000     -3.183970000000000     -2.621800000000000
H       1.000620000000000     -0.289420000000000     -2.969990000000000
H      -0.757000000000000     -0.740430000000000     -2.977810000000000
C      -2.301670000000000      1.634180000000000     -2.594440000000000
C      -0.744560000000000      3.184830000000000     -1.406660000000000
C      -0.069370000000000      2.235150000000000     -3.620640000000000
H      -2.856220000000000      1.469060000000000     -1.645560000000000
H      -2.769080000000000      2.490990000000000     -3.127750000000000
H      -2.420170000000000      0.738390000000000     -3.234470000000000
H       0.307180000000000      3.455790000000000     -1.177000000000000
H      -1.218010000000000      4.059660000000000     -1.905120000000000
H      -1.273110000000000      3.009310000000000     -0.446550000000000
H       1.003530000000000      2.438390000000000     -3.410910000000000
H      -0.132340000000000      1.374970000000000     -4.318750000000000
H      -0.501330000000000      3.121550000000000     -4.131080000000000
Na     -9.031499999999999      2.302300000000000      7.763400000000000
C      -6.778980000000000      3.281120000000000      9.942330000000000
C      -7.558600000000000      1.179760000000000     10.475130000000000
O      -7.936650000000000      2.499910000000000     10.148400000000001
C      -7.192770000000000      4.705020000000000      9.599750000000000
C      -8.810300000000000      0.337880000000000     10.681330000000001
H      -6.157950000000000      3.321100000000000     10.866289999999999
H      -6.183990000000000      2.886430000000000      9.087830000000000
H      -6.972920000000000      0.719100000000000      9.647130000000001
H      -6.975440000000000      1.160090000000000     11.423850000000000
H      -9.417949999999999      0.321060000000000      9.751630000000000
H      -8.523770000000001     -0.703400000000000     10.940930000000000
H      -9.422450000000000      0.757760000000000     11.507630000000001
H      -7.785030000000000      5.141830000000000     10.431870000000000
H      -6.288640000000000      5.329000000000000      9.435480000000000
H      -7.807670000000000      4.712110000000000      8.674580000000001
Na     -8.946660000000000      3.431260000000000     12.396229999999999
Mg     -2.665430000000000      6.156790000000000      8.958629999999999
H      -0.859140000000000      8.425900000000000      7.933320000000000
C      -1.610610000000000      9.311340000000000      9.795949999999999
C      -1.804850000000000      8.530840000000000      8.502780000000000
C      -0.692690000000000      8.603910000000001     10.806350000000000
H      -1.208200000000000     10.315759999999999      9.548800000000000
H      -2.605450000000000      9.438340000000000     10.275390000000000
H      -0.615390000000000      9.254060000000001     11.704969999999999
H      -1.141260000000000      7.636950000000000     11.118520000000000
C       0.716580000000000      8.343830000000001     10.276230000000000
H      -2.570810000000000      9.011310000000000      7.860480000000000
H       0.692570000000000      7.618130000000000      9.436920000000001
H       1.185100000000000      9.291140000000000      9.936900000000000
H       1.338710000000000      7.905410000000000     11.085129999999999
C      -2.995060000000000      5.492020000000000     12.046780000000000
C      -3.089520000000000      4.287250000000000     12.723599999999999
C      -2.995030000000000      3.281470000000000     11.773690000000000
C      -2.826470000000000      3.914500000000000     10.562189999999999
N      -2.842630000000000      5.243030000000000     10.736330000000001
C      -2.657480000000000      3.277140000000000      9.195679999999999
N      -2.259910000000000      4.306480000000000      8.211470000000000
C      -2.021120000000000      3.954480000000000      6.800340000000000
H      -3.217010000000000      4.154820000000000     13.789330000000000
H      -3.039110000000000      6.480540000000000     12.485700000000000
H      -3.031560000000000      2.214900000000000     11.947540000000000
H      -3.622900000000000      2.806810000000000      8.918880000000000
H      -1.862860000000000      2.510330000000000      9.262890000000001
C      -3.260270000000000      3.286160000000000      6.179170000000000
C      -1.706480000000000      5.244240000000000      6.020290000000000
C      -0.803500000000000      3.014950000000000      6.700390000000000
H      -4.140720000000000      3.959860000000000      6.250170000000000
H      -3.076740000000000      3.055730000000000      5.108320000000000
H      -3.498380000000000      2.330820000000000      6.690310000000000
H      -0.818550000000000      5.757850000000000      6.448390000000000
H      -1.492150000000000      5.013510000000000      4.952680000000000
H      -2.566280000000000      5.946950000000000      6.057350000000000
H       0.092720000000000      3.501870000000000      7.144290000000000
H      -0.984040000000000      2.061480000000000      7.236790000000000
H      -0.580450000000000      2.767680000000000      5.640630000000000
