185

Mg      0.186480000000000      0.453970000000000     -0.176620000000000
C       0.214610000000000     -1.883000000000000     -2.776540000000000
C       1.732180000000000     -2.388020000000000     -1.004980000000000
O       0.604580000000000     -1.649610000000000     -1.435930000000000
C      -0.291530000000000     -3.299570000000000     -3.028740000000000
C       3.014620000000000     -2.040820000000000     -1.756480000000000
H      -0.630700000000000     -1.190370000000000     -2.979450000000000
H       1.006780000000000     -1.608190000000000     -3.498630000000000
H       1.905780000000000     -2.105150000000000      0.052250000000000
H       1.533100000000000     -3.478580000000000     -0.984600000000000
H       3.177410000000000     -0.943190000000000     -1.749840000000000
H       3.873780000000000     -2.533080000000000     -1.255030000000000
H       2.970870000000000     -2.407220000000000     -2.800840000000000
H      -1.098020000000000     -3.558860000000000     -2.313800000000000
H      -0.696110000000000     -3.358400000000000     -4.060990000000000
H       0.535580000000000     -4.031010000000000     -2.939800000000000
H      -0.426220000000000      1.658670000000000     -2.813150000000000
C       1.760530000000000      1.560540000000000     -2.987110000000000
C       0.489670000000000      1.819570000000000     -2.207910000000000
C       1.859000000000000      2.551450000000000     -4.133790000000000
H       2.636580000000000      1.668530000000000     -2.314920000000000
H       1.745480000000000      0.524620000000000     -3.377880000000000
H       0.972480000000000      2.433440000000000     -4.794390000000000
H       1.870950000000000      3.583920000000000     -3.721520000000000
C       3.124550000000000      2.316070000000000     -4.942280000000000
H       0.496210000000000      2.813090000000000     -1.713700000000000
H       4.019970000000000      2.440230000000000     -4.296420000000000
H       3.120020000000000      1.290740000000000     -5.370210000000000
H       3.167550000000000      3.054170000000000     -5.768390000000000
C      -3.030970000000000      0.140040000000000      3.454280000000000
C      -2.285270000000000      1.047130000000000      4.174830000000000
C      -0.952840000000000      0.779240000000000      3.900990000000000
C      -0.938480000000000     -0.230690000000000      3.034780000000000
N      -2.260100000000000     -0.628630000000000      2.778570000000000
C       0.252090000000000     -0.950380000000000      2.430670000000000
N       1.089700000000000     -0.172940000000000      1.498330000000000
C       2.118270000000000      0.796530000000000      1.901410000000000
H      -2.676740000000000      1.809000000000000      4.836760000000000
H      -4.108190000000000      0.057670000000000      3.436760000000000
H      -0.111870000000000      1.292900000000000      4.331890000000000
H      -0.166810000000000     -1.784460000000000      1.827000000000000
H       0.864010000000000     -1.421370000000000      3.219450000000000
C       2.728700000000000      0.425690000000000      3.255260000000000
C       3.230820000000000      0.752760000000000      0.834680000000000
C       1.539940000000000      2.226770000000000      1.902760000000000
H       3.136020000000000     -0.607760000000000      3.203000000000000
H       3.549020000000000      1.123470000000000      3.516200000000000
H       1.966700000000000      0.467240000000000      4.054780000000000
H       2.820270000000000      1.000270000000000     -0.164930000000000
H       4.035540000000000      1.484680000000000      1.062680000000000
H       3.681290000000000     -0.260410000000000      0.770060000000000
H       1.195620000000000      2.519080000000000      0.885610000000000
H       0.677630000000000      2.331760000000000      2.575320000000000
H       2.315040000000000      2.956420000000000      2.220420000000000
C      -2.957470000000000      0.744540000000000     -0.103980000000000
C      -2.441650000000000     -1.548730000000000     -0.304860000000000
O      -2.022410000000000     -0.220310000000000     -0.544710000000000
C      -2.223780000000000      1.963660000000000      0.459470000000000
C      -3.478610000000000     -1.985660000000000     -1.319840000000000
H      -3.561140000000000      1.070390000000000     -0.974610000000000
H      -3.639290000000000      0.366960000000000      0.688120000000000
H      -1.555930000000000     -2.208880000000000     -0.391830000000000
H      -2.813430000000000     -1.711990000000000      0.721410000000000
H      -3.076300000000000     -1.859700000000000     -2.346030000000000
H      -3.729450000000000     -3.052410000000000     -1.147060000000000
H      -4.394150000000000     -1.372100000000000     -1.199560000000000
H      -1.610160000000000      1.691910000000000      1.337190000000000
H      -1.550130000000000      2.410040000000000     -0.299040000000000
H      -2.958810000000000      2.731360000000000      0.777210000000000
Na      1.034750000000000      1.116680000000000     10.079230000000001
C       3.533390000000000      3.013470000000000     10.680330000000000
C       3.191100000000000      3.146330000000000      8.363560000000000
O       3.128680000000000      2.324150000000000      9.513360000000000
C       2.345260000000000      3.704330000000000     11.341939999999999
C       4.558890000000000      3.052260000000000      7.692170000000000
H       3.942410000000000      2.265640000000000     11.392289999999999
H       4.356220000000000      3.738390000000000     10.488350000000001
H       2.422670000000000      2.784560000000000      7.647420000000000
H       2.936790000000000      4.207590000000000      8.580690000000001
H       4.775690000000000      2.004940000000000      7.396220000000000
H       4.565350000000000      3.684690000000000      6.779970000000000
H       5.356660000000000      3.407860000000000      8.376340000000001
H       1.561970000000000      2.959970000000000     11.596200000000000
H       2.679790000000000      4.204540000000000     12.274380000000001
H       1.911490000000000      4.468900000000000     10.665830000000000
C      -0.839740000000000      3.634430000000000      8.866410000000000
C      -2.172530000000000      1.726450000000000      9.384770000000000
O      -0.871360000000000      2.262880000000000      9.219780000000000
C      -1.430920000000000      4.559810000000000      9.930700000000000
C      -3.005170000000000      1.739070000000000      8.103360000000000
H       0.231650000000000      3.907560000000000      8.765779999999999
H      -1.285810000000000      3.813130000000000      7.866680000000000
H      -2.039450000000000      0.660540000000000      9.669670000000000
H      -2.710170000000000      2.194640000000000     10.234959999999999
H      -2.444870000000000      1.242280000000000      7.284330000000000
H      -3.953970000000000      1.189730000000000      8.277130000000000
H      -3.264810000000000      2.775460000000000      7.806930000000000
H      -0.942340000000000      4.376970000000000     10.910860000000000
H      -1.256900000000000      5.615280000000000      9.633210000000000
H      -2.525860000000000      4.413360000000000     10.024010000000001
Na      4.288040000000000      0.305820000000000      8.948549999999999
C       1.989170000000000     -1.747500000000000     10.208980000000000
C       1.648740000000000     -1.328460000000000      7.930790000000000
O       2.153980000000000     -0.825490000000000      9.151160000000001
C       2.864790000000000     -1.311140000000000     11.377280000000001
C       0.129590000000000     -1.196900000000000      7.845300000000000
H       0.932910000000000     -1.749250000000000     10.553910000000000
H       2.306200000000000     -2.775800000000000      9.923880000000000
H       2.087410000000000     -0.713650000000000      7.115620000000000
H       1.977470000000000     -2.373440000000000      7.737190000000000
H      -0.170160000000000     -0.137610000000000      7.981720000000000
H      -0.215510000000000     -1.539710000000000      6.847300000000000
H      -0.363230000000000     -1.819220000000000      8.618690000000001
H       2.590860000000000     -0.284160000000000     11.701110000000000
H       2.728060000000000     -2.005440000000000     12.232889999999999
H       3.933870000000000     -1.319740000000000     11.078560000000000
C       6.527610000000000     -2.137920000000000      8.961169999999999
C       7.217440000000000     -0.460070000000000     10.399850000000001
O       6.173430000000000     -0.924580000000000      9.579219999999999
C       5.372390000000000     -2.569900000000000      8.067790000000000
C       6.760770000000000      0.834480000000000     11.059049999999999
H       7.429520000000000     -2.010710000000000      8.320770000000000
H       6.691770000000000     -2.933480000000000      9.722170000000000
H       7.445990000000000     -1.194440000000000     11.204770000000000
H       8.126540000000000     -0.239430000000000      9.796220000000000
H       5.852330000000000      0.646390000000000     11.670470000000000
H       7.561210000000000      1.232750000000000     11.716480000000001
H       6.519660000000000      1.593020000000000     10.282990000000000
H       5.178290000000000     -1.796520000000000      7.293430000000000
H       5.612580000000000     -3.530630000000000      7.567280000000000
H       4.454370000000000     -2.702840000000000      8.676890000000000
Mg     -3.444300000000000     -6.297920000000000     12.165660000000001
C      -3.847820000000000     -4.419430000000000      9.578020000000000
C      -3.518220000000000     -3.121400000000000     11.548970000000001
O      -4.132780000000000     -4.246850000000000     10.954170000000000
C      -2.363770000000000     -4.614530000000000      9.265219999999999
C      -4.146750000000000     -1.813160000000000     11.089140000000000
H      -4.357540000000000     -5.355120000000000      9.275420000000000
H      -4.304950000000000     -3.622510000000000      8.958170000000001
H      -3.690210000000000     -3.208860000000000     12.643750000000001
H      -2.415750000000000     -3.119240000000000     11.430870000000001
H      -5.245120000000000     -1.851420000000000     11.247949999999999
H      -3.721950000000000     -0.974400000000000     11.678520000000001
H      -3.929620000000000     -1.632650000000000     10.017300000000001
H      -1.925700000000000     -5.380930000000000      9.933719999999999
H      -2.251820000000000     -4.947360000000000      8.212260000000001
H      -1.806980000000000     -3.665240000000000      9.382260000000000
H      -0.877770000000000     -6.770540000000000     12.520320000000000
C      -1.606130000000000     -5.972720000000000     14.410180000000000
C      -1.516070000000000     -5.945400000000000     12.897119999999999
C      -2.279160000000000     -7.266370000000000     14.881030000000001
H      -0.577130000000000     -5.890860000000000     14.815989999999999
H      -2.210320000000000     -5.105980000000000     14.759309999999999
H      -3.335740000000000     -7.282010000000000     14.537260000000000
H      -1.759050000000000     -8.149760000000001     14.453220000000000
C      -2.242140000000000     -7.375160000000000     16.399880000000000
H      -1.126870000000000     -4.971290000000000     12.537050000000001
H      -1.185940000000000     -7.409460000000000     16.742909999999998
H      -2.752530000000000     -6.507270000000000     16.868340000000000
H      -2.749870000000000     -8.309040000000000     16.720160000000000
C      -6.169440000000000     -7.616030000000000     14.591720000000000
C      -6.019320000000000     -6.271460000000000     14.308439999999999
C      -5.970380000000000     -6.160730000000000     12.932440000000000
C      -6.070460000000000     -7.394830000000000     12.450770000000000
N      -6.213280000000000     -8.306670000000000     13.509770000000000
C      -6.048260000000000     -7.794780000000000     10.996820000000000
N      -4.718210000000000     -7.582960000000000     10.397190000000000
C      -3.854270000000000     -8.776320000000000     10.214810000000000
H      -5.942000000000000     -5.463310000000000     15.026210000000001
H      -6.237310000000000     -8.053369999999999     15.575900000000001
H      -5.866470000000000     -5.250220000000000     12.365530000000000
H      -6.790450000000000     -7.173750000000000     10.451829999999999
H      -6.376200000000000     -8.844020000000000     10.910520000000000
C      -4.479790000000000     -9.754650000000000      9.199320000000000
C      -2.505720000000000     -8.301869999999999      9.638529999999999
C      -3.573890000000000     -9.491140000000000     11.553610000000001
H      -4.696160000000000     -9.227349999999999      8.245620000000001
H      -3.781020000000000    -10.592549999999999      8.987670000000000
H      -5.417290000000000    -10.208890000000000      9.572139999999999
H      -1.990610000000000     -7.625640000000000     10.350250000000001
H      -1.827490000000000     -9.163230000000000      9.447929999999999
H      -2.654400000000000     -7.758670000000000      8.680350000000001
H      -3.057480000000000     -8.809419999999999     12.262309999999999
H      -4.508870000000000     -9.849200000000000     12.026490000000001
H      -2.919050000000000    -10.375100000000000     11.391330000000000
