125

Mg      0.343560000000000      0.239140000000000     -0.313480000000000
C      -0.934640000000000     -1.802130000000000     -2.402200000000000
C      -1.074450000000000      0.443220000000000     -3.193420000000000
O      -1.178980000000000     -0.442400000000000     -2.099180000000000
C       0.457110000000000     -2.078250000000000     -2.970230000000000
C      -2.233360000000000      0.281220000000000     -4.163170000000000
H      -0.990100000000000     -2.338880000000000     -1.438130000000000
H      -1.741910000000000     -2.241340000000000     -3.021040000000000
H      -1.129330000000000      1.469980000000000     -2.769890000000000
H      -0.090380000000000      0.390530000000000     -3.702980000000000
H      -3.192100000000000      0.319150000000000     -3.604300000000000
H      -2.210070000000000      1.103650000000000     -4.907510000000000
H      -2.149310000000000     -0.686050000000000     -4.697860000000000
H       1.231270000000000     -1.552420000000000     -2.376880000000000
H       0.657730000000000     -3.169420000000000     -2.931550000000000
H       0.517060000000000     -1.752640000000000     -4.027370000000000
H       2.841520000000000      0.566150000000000     -0.935520000000000
C       1.977630000000000      2.566760000000000     -0.850100000000000
C       1.944320000000000      1.115650000000000     -1.283480000000000
C       1.961280000000000      2.674540000000000      0.679080000000000
H       2.897890000000000      3.018900000000000     -1.269650000000000
H       1.085670000000000      3.095470000000000     -1.255020000000000
H       0.985710000000000      2.314170000000000      1.067010000000000
H       2.763200000000000      2.046890000000000      1.121570000000000
C       2.181160000000000      4.115810000000000      1.121300000000000
H       1.840680000000000      1.023480000000000     -2.383030000000000
H       3.180830000000000      4.457420000000000      0.777170000000000
H       1.400240000000000      4.781970000000000      0.697630000000000
H       2.147950000000000      4.178590000000000      2.229240000000000
C      -1.337900000000000      2.133530000000000      2.555450000000000
C      -1.801250000000000      2.181790000000000      1.260070000000000
C      -1.901090000000000      0.877560000000000      0.810620000000000
C      -1.488870000000000      0.063430000000000      1.789680000000000
N      -1.146630000000000      0.799240000000000      2.942000000000000
C      -1.379640000000000     -1.437350000000000      1.722270000000000
N      -0.275680000000000     -1.859360000000000      0.841920000000000
C       0.997610000000000     -2.286460000000000      1.472650000000000
H      -2.021920000000000      3.082300000000000      0.701260000000000
H      -1.134530000000000      2.986840000000000      3.185600000000000
H      -2.234160000000000      0.582100000000000     -0.172520000000000
H      -2.332620000000000     -1.850260000000000      1.327260000000000
H      -1.253970000000000     -1.826980000000000      2.744600000000000
C       0.782170000000000     -3.540720000000000      2.341240000000000
C       1.975990000000000     -2.656160000000000      0.339540000000000
C       1.637000000000000     -1.158230000000000      2.310850000000000
H       0.277180000000000     -4.332400000000000      1.748210000000000
H       1.756670000000000     -3.934030000000000      2.702560000000000
H       0.174790000000000     -3.326130000000000      3.240090000000000
H       2.200800000000000     -1.770440000000000     -0.289310000000000
H       2.941480000000000     -3.031500000000000      0.744950000000000
H       1.541240000000000     -3.443160000000000     -0.313710000000000
H       1.902870000000000     -0.289770000000000      1.671350000000000
H       0.954110000000000     -0.812220000000000      3.109980000000000
H       2.568170000000000     -1.518240000000000      2.801320000000000
Na      8.438630000000000     -8.308009999999999     10.515060000000000
C       8.527430000000001     -5.530460000000000      8.769819999999999
C       6.455390000000000     -6.521830000000000      8.600490000000001
O       7.846250000000000     -6.736450000000000      8.496689999999999
C      10.025800000000000     -5.765470000000000      8.640060000000000
C       5.724510000000000     -7.826000000000000      8.316540000000000
H       8.242760000000001     -4.738960000000000      8.039090000000000
H       8.325130000000000     -5.190090000000000      9.810940000000000
H       6.180190000000000     -6.194220000000000      9.629180000000000
H       6.117410000000000     -5.777330000000000      7.846680000000000
H       6.028330000000000     -8.602869999999999      9.049849999999999
H       4.628140000000000     -7.665900000000000      8.395849999999999
H       5.961820000000000     -8.181250000000000      7.291200000000000
H      10.273099999999999     -6.097290000000000      7.609200000000000
H      10.574009999999999     -4.823860000000000      8.855210000000000
H      10.354410000000000     -6.544670000000000      9.360360000000000
Na      8.217409999999999     -7.093260000000000      5.911020000000000
Mg      4.234250000000000     -1.334000000000000      8.671519999999999
C       6.131490000000000     -0.357690000000000     11.082910000000000
C       4.186570000000000     -1.467370000000000     11.898170000000000
O       4.734910000000000     -0.558290000000000     10.965320000000000
C       6.966320000000000     -1.623790000000000     10.884119999999999
C       4.146450000000000     -0.889960000000000     13.305890000000000
H       6.410180000000000      0.333180000000000     10.263600000000000
H       6.395200000000000      0.176050000000000     12.017720000000001
H       3.136830000000000     -1.651010000000000     11.581799999999999
H       4.674250000000000     -2.462750000000000     11.868309999999999
H       3.632470000000000      0.094180000000000     13.291130000000001
H       3.590050000000000     -1.582210000000000     13.971130000000000
H       5.173370000000000     -0.769470000000000     13.705069999999999
H       6.643080000000000     -2.161020000000000      9.971190000000000
H       8.035170000000001     -1.343860000000000     10.777650000000000
H       6.877200000000000     -2.298240000000000     11.758220000000000
H       4.885430000000000     -3.778740000000000      7.990110000000000
C       2.749840000000000     -3.830030000000000      8.397779999999999
C       4.165220000000000     -3.419980000000000      8.751170000000000
C       2.325580000000000     -3.189620000000000      7.071700000000000
H       2.720660000000000     -4.936810000000000      8.331060000000001
H       2.057040000000000     -3.489800000000000      9.199370000000000
H       2.277230000000000     -2.085980000000000      7.190570000000000
H       3.064450000000000     -3.423450000000000      6.275850000000000
C       0.963450000000000     -3.708060000000000      6.630470000000000
H       4.453220000000000     -3.793530000000000      9.754960000000001
H       1.021630000000000     -4.804650000000000      6.461640000000000
H       0.193360000000000     -3.495020000000000      7.401610000000000
H       0.667980000000000     -3.216770000000000      5.680550000000000
C       1.326320000000000      0.587650000000000      7.001440000000000
C       1.380550000000000      0.373860000000000      8.365880000000001
C       2.640380000000000      0.763180000000000      8.778460000000001
C       3.284970000000000      1.165350000000000      7.687860000000000
N       2.438670000000000      1.066750000000000      6.572280000000000
C       4.705860000000000      1.664230000000000      7.614520000000000
N       5.672650000000000      0.583070000000000      7.877360000000000
C       6.360380000000000     -0.016930000000000      6.706560000000000
H       0.592810000000000     -0.034470000000000      8.988429999999999
H       0.484820000000000      0.384600000000000      6.358130000000000
H       3.021650000000000      0.736810000000000      9.786250000000001
H       4.840260000000000      2.461490000000000      8.376030000000000
H       4.865360000000000      2.126490000000000      6.626460000000000
C       7.261290000000000      1.023610000000000      6.010010000000000
C       7.266470000000000     -1.153220000000000      7.220780000000000
C       5.358700000000000     -0.625100000000000      5.701470000000000
H       7.963920000000000      1.471890000000000      6.744690000000000
H       7.854620000000000      0.543670000000000      5.202220000000000
H       6.679540000000000      1.837030000000000      5.536460000000000
H       6.662840000000000     -1.953050000000000      7.695380000000000
H       7.837440000000000     -1.618190000000000      6.386560000000000
H       7.994140000000000     -0.770380000000000      7.968560000000000
H       4.759530000000000     -1.428310000000000      6.180500000000000
H       4.666020000000000      0.141230000000000      5.302730000000000
H       5.898840000000000     -1.071060000000000      4.837820000000000
