125

Mg     -0.293400000000000      0.401200000000000      0.667560000000000
C       0.967590000000000     -2.471740000000000     -1.401850000000000
C      -1.337350000000000     -2.549650000000000     -1.388330000000000
O      -0.187770000000000     -2.305890000000000     -0.602820000000000
C       2.187140000000000     -2.641480000000000     -0.508630000000000
C      -2.589110000000000     -2.284620000000000     -0.562340000000000
H       0.907980000000000     -3.383790000000000     -2.036620000000000
H       1.118810000000000     -1.582490000000000     -2.048030000000000
H      -1.361180000000000     -1.890920000000000     -2.281660000000000
H      -1.366690000000000     -3.609730000000000     -1.717760000000000
H      -2.624380000000000     -1.226520000000000     -0.233090000000000
H      -3.492210000000000     -2.494740000000000     -1.173660000000000
H      -2.599290000000000     -2.942200000000000      0.331620000000000
H       2.061150000000000     -3.524170000000000      0.150330000000000
H       3.096580000000000     -2.767700000000000     -1.131950000000000
H       2.331690000000000     -1.757440000000000      0.128190000000000
H      -2.280280000000000     -1.424160000000000      2.360540000000000
C      -2.432640000000000      0.743580000000000      2.736170000000000
C      -1.636290000000000     -0.539470000000000      2.530330000000000
C      -3.343060000000000      1.045610000000000      1.537880000000000
H      -3.042150000000000      0.619560000000000      3.653870000000000
H      -1.727040000000000      1.592510000000000      2.878420000000000
H      -2.732980000000000      1.232300000000000      0.626200000000000
H      -4.011220000000000      0.179280000000000      1.345910000000000
C      -4.210950000000000      2.270830000000000      1.813890000000000
H      -0.920550000000000     -0.712280000000000      3.359580000000000
H      -4.840050000000000      2.094080000000000      2.712780000000000
H      -3.577450000000000      3.166790000000000      1.981890000000000
H      -4.879510000000000      2.464430000000000      0.948590000000000
C      -1.506610000000000      0.663400000000000     -2.242190000000000
C      -0.906800000000000      0.971730000000000     -3.450310000000000
C       0.434630000000000      1.203250000000000     -3.182940000000000
C       0.599550000000000      1.012140000000000     -1.830720000000000
N      -0.575200000000000      0.677420000000000     -1.280150000000000
C       1.866390000000000      1.166860000000000     -1.007910000000000
N       1.700260000000000      0.570110000000000      0.337830000000000
C       2.637410000000000      0.944870000000000      1.416000000000000
H      -1.392600000000000      1.023130000000000     -4.413730000000000
H      -2.553730000000000      0.427940000000000     -2.086360000000000
H       1.205060000000000      1.469730000000000     -3.892920000000000
H       2.702820000000000      0.648700000000000     -1.518680000000000
H       2.075070000000000      2.252710000000000     -0.947700000000000
C       2.385070000000000      2.386500000000000      1.892300000000000
C       2.417130000000000     -0.005350000000000      2.611000000000000
C       4.091870000000000      0.786900000000000      0.929660000000000
H       1.353160000000000      2.489600000000000      2.291950000000000
H       3.100940000000000      2.652690000000000      2.700990000000000
H       2.521750000000000      3.117190000000000      1.071590000000000
H       2.598490000000000     -1.062880000000000      2.326110000000000
H       3.109100000000000      0.243780000000000      3.446000000000000
H       1.377520000000000      0.076100000000000      2.991100000000000
H       4.266230000000000     -0.252070000000000      0.573770000000000
H       4.308170000000000      1.483580000000000      0.093530000000000
H       4.809900000000000      1.002680000000000      1.748590000000000
Na      5.690820000000000      2.620090000000000      9.059240000000001
C       3.035020000000000      3.739150000000000      7.486740000000000
C       2.433980000000000      2.725610000000000      9.466070000000000
O       3.181990000000000      2.579360000000000      8.278250000000000
C       3.832330000000000      3.568910000000000      6.201100000000000
C       2.603220000000000      1.478650000000000     10.321770000000001
H       1.968110000000000      3.896770000000000      7.207000000000000
H       3.434240000000000      4.632680000000000      8.018720000000000
H       2.796440000000000      3.596630000000000     10.058619999999999
H       1.350940000000000      2.829940000000000      9.236280000000001
H       3.673310000000000      1.335400000000000     10.582409999999999
H       2.016340000000000      1.584800000000000     11.258920000000000
H       2.240100000000000      0.585270000000000      9.770630000000001
H       3.458460000000000      2.691380000000000      5.631660000000000
H       3.726920000000000      4.477170000000000      5.570650000000000
H       4.907580000000000      3.418170000000000      6.435990000000000
Na      1.853890000000000      0.738020000000000      6.939100000000000
Mg     -2.926080000000000      5.929530000000000      8.857260000000000
C      -4.459400000000000      3.897150000000000      5.941660000000000
C      -5.009910000000000      2.827500000000000      7.909020000000000
O      -3.982050000000000      3.500560000000000      7.211920000000000
C      -3.280700000000000      4.221880000000000      5.037760000000000
C      -4.538450000000000      2.502850000000000      9.319470000000001
H      -5.033820000000000      3.086330000000000      5.438870000000000
H      -5.096690000000000      4.801810000000000      6.038040000000000
H      -5.923780000000000      3.456780000000000      7.984910000000000
H      -5.256920000000000      1.868120000000000      7.404560000000000
H      -4.290150000000000      3.433550000000000      9.868650000000001
H      -5.341650000000000      1.968510000000000      9.869800000000000
H      -3.637810000000000      1.855190000000000      9.278940000000000
H      -2.632920000000000      3.329230000000000      4.917520000000000
H      -3.648200000000000      4.550570000000000      4.044200000000000
H      -2.676250000000000      5.036320000000000      5.466820000000000
H      -1.633100000000000      3.211560000000000     10.236070000000000
C      -1.466810000000000      5.087400000000000     11.356150000000000
C      -1.391810000000000      4.280330000000000     10.066900000000000
C      -2.873480000000000      5.037110000000000     11.964560000000001
H      -0.727490000000000      4.667340000000000     12.069279999999999
H      -1.200440000000000      6.145580000000000     11.138769999999999
H      -3.605810000000000      5.508350000000000     11.272930000000001
H      -3.172940000000000      3.980560000000000     12.132910000000001
C      -2.913500000000000      5.769550000000000     13.302590000000000
H      -0.392810000000000      4.384080000000000      9.599110000000000
H      -2.204180000000000      5.295690000000000     14.014500000000000
H      -2.640040000000000      6.838130000000000     13.171730000000000
H      -3.936040000000000      5.711590000000000     13.731740000000000
C      -6.065030000000000      5.772300000000000      9.259800000000000
C      -7.104650000000000      6.374280000000000      8.573779999999999
C      -6.532960000000000      7.149920000000000      7.575300000000000
C      -5.170280000000000      6.970090000000000      7.681830000000000
N      -4.903520000000000      6.145010000000000      8.700519999999999
C      -4.071140000000000      7.589450000000000      6.833430000000000
N      -2.777460000000000      6.905180000000000      7.076530000000000
C      -1.519770000000000      7.579660000000000      6.700780000000000
H      -8.160259999999999      6.262300000000000      8.780600000000000
H      -6.155650000000000      5.101300000000000     10.104760000000001
H      -7.052220000000000      7.761010000000000      6.850510000000000
H      -4.328230000000000      7.465400000000000      5.761690000000000
H      -4.025690000000000      8.667949999999999      7.083330000000000
C      -1.211140000000000      8.734109999999999      7.668850000000000
C      -0.372390000000000      6.551780000000000      6.786790000000000
C      -1.600860000000000      8.097720000000001      5.250230000000000
H      -1.118110000000000      8.351440000000000      8.708190000000000
H      -0.252660000000000      9.223770000000000      7.389070000000000
H      -2.004710000000000      9.506589999999999      7.646280000000000
H      -0.544410000000000      5.696640000000000      6.100010000000000
H       0.597820000000000      7.018640000000000      6.507230000000000
H      -0.277940000000000      6.151250000000000      7.817960000000000
H      -1.830200000000000      7.260390000000000      4.555400000000000
H      -2.393480000000000      8.867160000000000      5.144440000000000
H      -0.637800000000000      8.556160000000000      4.940230000000000
