95

Mg     -0.058670000000000      0.971960000000000     -0.276970000000000
H      -2.978080000000000      1.710430000000000     -0.154350000000000
C      -2.636100000000000      1.691140000000000     -2.330920000000000
C      -2.231660000000000      2.039500000000000     -0.905550000000000
C      -2.706940000000000      0.178350000000000     -2.601960000000000
H      -3.614790000000000      2.167630000000000     -2.543650000000000
H      -1.875360000000000      2.118320000000000     -3.019760000000000
H      -3.026260000000000      0.040660000000000     -3.658060000000000
H      -1.702460000000000     -0.281510000000000     -2.485850000000000
C      -3.690660000000000     -0.561410000000000     -1.697560000000000
H      -2.022700000000000      3.122800000000000     -0.791490000000000
H      -3.348210000000000     -0.532590000000000     -0.642160000000000
H      -4.701970000000000     -0.111310000000000     -1.774920000000000
H      -3.746810000000000     -1.626910000000000     -2.006910000000000
C       1.197690000000000     -0.852570000000000     -2.554590000000000
C       2.166470000000000     -1.842010000000000     -2.501400000000000
C       2.552400000000000     -1.955360000000000     -1.174780000000000
C       1.795430000000000     -1.045810000000000     -0.474420000000000
N       0.988580000000000     -0.382290000000000     -1.316110000000000
C       1.830880000000000     -0.760540000000000      1.013860000000000
N       0.685180000000000      0.090830000000000      1.393730000000000
C       0.471620000000000      0.481310000000000      2.799520000000000
H       2.553770000000000     -2.412350000000000     -3.333710000000000
H       0.688440000000000     -0.501160000000000     -3.444270000000000
H       3.292420000000000     -2.628300000000000     -0.763380000000000
H       2.792080000000000     -0.250680000000000      1.231850000000000
H       1.771040000000000     -1.721480000000000      1.556250000000000
C       1.713060000000000      1.187780000000000      3.374230000000000
C      -0.727480000000000      1.445190000000000      2.871640000000000
C       0.142200000000000     -0.772000000000000      3.632820000000000
H       1.958250000000000      2.089850000000000      2.773720000000000
H       1.529540000000000      1.500730000000000      4.424980000000000
H       2.591590000000000      0.510490000000000      3.378120000000000
H      -1.641850000000000      0.971000000000000      2.454290000000000
H      -0.936490000000000      1.729460000000000      3.927580000000000
H      -0.523350000000000      2.374290000000000      2.297530000000000
H      -0.762830000000000     -1.274680000000000      3.226150000000000
H       0.979880000000000     -1.496720000000000      3.615050000000000
H      -0.046380000000000     -0.505730000000000      4.694090000000000
Na     -1.058480000000000     -1.332420000000000     10.450540000000000
C      -3.152590000000000     -0.572990000000000     12.824970000000000
C      -3.756330000000000     -2.561090000000000     11.829330000000001
O      -3.397480000000000     -1.216510000000000     11.592639999999999
C      -2.772480000000000      0.877790000000000     12.563990000000000
C      -4.005430000000000     -3.253410000000000     10.496790000000001
H      -4.067010000000000     -0.574880000000000     13.461130000000001
H      -2.303410000000000     -1.055420000000000     13.360490000000000
H      -2.933420000000000     -3.106360000000000     12.345459999999999
H      -4.696670000000000     -2.618900000000000     12.423730000000001
H      -3.085270000000000     -3.229400000000000      9.874910000000000
H      -4.292140000000000     -4.312080000000000     10.671799999999999
H      -4.827990000000000     -2.744500000000000      9.950329999999999
H      -3.599310000000000      1.401460000000000     12.038700000000000
H      -2.576500000000000      1.393770000000000     13.527900000000001
H      -1.856000000000000      0.926560000000000     11.938330000000001
Na     -5.634500000000000     -0.108620000000000     10.742920000000000
Mg     -0.042210000000000     -5.048890000000000      7.084530000000000
H      -0.987370000000000     -7.096080000000000      4.876410000000000
C       1.177720000000000     -7.188290000000000      4.552440000000000
C      -0.093080000000000     -6.442220000000000      4.923880000000000
C       1.449730000000000     -8.394790000000000      5.461680000000000
H       1.071090000000000     -7.542520000000000      3.505960000000000
H       2.040090000000000     -6.489720000000000      4.599140000000000
H       0.597560000000000     -9.107360000000000      5.415780000000000
H       2.355360000000000     -8.907870000000001      5.074880000000000
C       1.712980000000000     -8.010949999999999      6.919390000000000
H      -0.230820000000000     -5.558410000000000      4.264230000000000
H       0.807060000000000     -7.572580000000000      7.384400000000000
H       1.991530000000000     -8.922190000000001      7.491610000000000
H       2.551310000000000     -7.285090000000000      6.987970000000000
C      -1.339460000000000     -6.562950000000000      9.558890000000000
C      -1.182930000000000     -6.396330000000000     10.925280000000001
C      -0.264650000000000     -5.373020000000000     11.105040000000001
C       0.114800000000000     -4.974040000000000      9.842599999999999
N      -0.549380000000000     -5.684850000000000      8.921020000000000
C       1.114100000000000     -3.895590000000000      9.469300000000000
N       1.406190000000000     -3.967250000000000      8.021970000000000
C       2.383990000000000     -3.057610000000000      7.398860000000000
H      -1.683080000000000     -6.954780000000000     11.704739999999999
H      -1.989760000000000     -7.276040000000000      9.068770000000001
H       0.094730000000000     -4.976990000000000     12.044919999999999
H       0.675990000000000     -2.914330000000000      9.740620000000000
H       2.044740000000000     -4.069840000000000     10.040940000000001
C       3.789270000000000     -3.339880000000000      7.965890000000000
C       2.408330000000000     -3.327940000000000      5.884110000000000
C       1.998500000000000     -1.586870000000000      7.636980000000000
H       4.067880000000000     -4.402020000000000      7.787500000000000
H       4.548900000000000     -2.691210000000000      7.480190000000000
H       3.832640000000000     -3.146570000000000      9.056740000000000
H       1.411690000000000     -3.134330000000000      5.434550000000000
H       3.153000000000000     -2.671960000000000      5.380110000000000
H       2.683950000000000     -4.383850000000000      5.678770000000000
H       0.986370000000000     -1.380920000000000      7.227780000000000
H       2.002740000000000     -1.344440000000000      8.719609999999999
H       2.726120000000000     -0.909800000000000      7.139240000000000
