155

Mg      0.076500000000000      0.954520000000000      0.018180000000000
C       1.571270000000000     -1.739190000000000     -1.130330000000000
C       1.747660000000000     -1.653010000000000      1.254950000000000
O       1.464880000000000     -0.968850000000000      0.053800000000000
C       0.852040000000000     -3.089700000000000     -1.102040000000000
C       3.215420000000000     -2.031060000000000      1.373360000000000
H       1.077770000000000     -1.144240000000000     -1.923480000000000
H       2.631370000000000     -1.848160000000000     -1.436200000000000
H       1.516960000000000     -0.953480000000000      2.080900000000000
H       1.070170000000000     -2.513520000000000      1.420840000000000
H       3.400950000000000     -2.448970000000000      2.384290000000000
H       3.852270000000000     -1.134130000000000      1.227410000000000
H       3.475040000000000     -2.794180000000000      0.614040000000000
H      -0.195350000000000     -2.967930000000000     -0.776890000000000
H       1.372450000000000     -3.798040000000000     -0.426620000000000
H       0.843480000000000     -3.522990000000000     -2.122220000000000
H       2.238760000000000      2.486320000000000      0.283780000000000
C       1.040740000000000      3.024060000000000      2.041230000000000
C       1.180750000000000      2.686480000000000      0.546970000000000
C       1.437000000000000      1.895350000000000      3.013770000000000
H       1.659370000000000      3.920180000000000      2.254930000000000
H      -0.022710000000000      3.273250000000000      2.244900000000000
H       1.295590000000000      2.265440000000000      4.054460000000000
H       0.759940000000000      1.028170000000000      2.877760000000000
C       2.890210000000000      1.442720000000000      2.872380000000000
H       0.799060000000000      3.521480000000000     -0.070910000000000
H       3.069250000000000      1.020920000000000      1.864900000000000
H       3.582650000000000      2.292920000000000      3.042140000000000
H       3.110170000000000      0.650340000000000      3.621320000000000
C      -1.611460000000000     -1.838010000000000      2.163910000000000
C      -1.775600000000000     -0.497140000000000      2.453520000000000
C      -2.042260000000000      0.137820000000000      1.255520000000000
C      -2.002560000000000     -0.802040000000000      0.315730000000000
N      -1.748080000000000     -2.050020000000000      0.905500000000000
C      -2.147810000000000     -0.580280000000000     -1.169240000000000
N      -1.086610000000000      0.329710000000000     -1.617190000000000
C      -1.114280000000000      0.844850000000000     -3.007930000000000
H      -1.671570000000000     -0.030060000000000      3.425340000000000
H      -1.382130000000000     -2.619550000000000      2.871730000000000
H      -2.195080000000000      1.198060000000000      1.102760000000000
H      -3.149980000000000     -0.159900000000000     -1.368710000000000
H      -2.041240000000000     -1.558420000000000     -1.683940000000000
C      -2.321170000000000      1.779840000000000     -3.219880000000000
C       0.176680000000000      1.639890000000000     -3.264720000000000
C      -1.182720000000000     -0.318200000000000     -4.026450000000000
H      -2.273950000000000      2.640150000000000     -2.520320000000000
H      -2.333370000000000      2.169790000000000     -4.261660000000000
H      -3.281030000000000      1.247060000000000     -3.065100000000000
H       1.070040000000000      0.989010000000000     -3.158880000000000
H       0.179190000000000      2.064090000000000     -4.294240000000000
H       0.265160000000000      2.478710000000000     -2.542970000000000
H      -0.320910000000000     -1.007080000000000     -3.897710000000000
H      -2.119360000000000     -0.902860000000000     -3.912960000000000
H      -1.159210000000000      0.068200000000000     -5.069450000000000
Na    -10.125050000000000     -6.441730000000000     -2.348220000000000
C      -8.450900000000001     -7.285920000000000      0.234860000000000
C     -10.187580000000001     -5.920050000000000      1.023280000000000
O      -9.282990000000000     -6.174300000000000     -0.034630000000000
C      -9.096100000000000     -8.578720000000001     -0.254370000000000
C      -9.586360000000001     -4.956980000000000      2.043870000000000
H      -7.499170000000000     -7.140540000000000     -0.318930000000000
H      -8.173069999999999     -7.364060000000000      1.309980000000000
H     -11.093620000000000     -5.448260000000000      0.586630000000000
H     -10.534219999999999     -6.850880000000000      1.524530000000000
H      -9.321280000000000     -3.993910000000000      1.560060000000000
H     -10.329610000000001     -4.757690000000000      2.844140000000000
H      -8.676250000000000     -5.392560000000000      2.505160000000000
H      -9.299110000000001     -8.517580000000001     -1.344050000000000
H      -8.409319999999999     -9.429729999999999     -0.065530000000000
H     -10.048920000000001     -8.767280000000000      0.280800000000000
C     -12.944599999999999     -7.905490000000000     -1.253210000000000
C     -13.058090000000000     -7.432490000000000     -3.587320000000000
O     -12.364670000000000     -7.247680000000000     -2.365660000000000
C     -12.967250000000000     -9.428879999999999     -1.380970000000000
C     -14.471259999999999     -6.850410000000000     -3.581210000000000
H     -12.302360000000000     -7.667870000000000     -0.379380000000000
H     -13.944830000000000     -7.494390000000000     -1.006290000000000
H     -12.485390000000001     -6.876700000000000     -4.360600000000000
H     -13.045940000000000     -8.492270000000000     -3.916050000000000
H     -14.442130000000001     -5.785320000000000     -3.268920000000000
H     -14.898550000000000     -6.915550000000000     -4.603700000000000
H     -15.133979999999999     -7.422840000000000     -2.901350000000000
H     -11.947620000000001     -9.809870000000000     -1.599740000000000
H     -13.316960000000000     -9.869199999999999     -0.424800000000000
H     -13.668419999999999     -9.752700000000001     -2.176270000000000
Na     -8.220480000000000     -4.089170000000000     -0.530040000000000
C      -8.536550000000000     -4.336260000000000     -3.830420000000000
C     -10.327380000000000     -3.184410000000000     -2.858080000000000
O      -9.336570000000000     -4.175660000000000     -2.677330000000000
C      -7.289990000000000     -5.127050000000000     -3.453080000000000
C     -11.522670000000000     -3.709390000000000     -3.651040000000000
H      -9.089350000000000     -4.914810000000000     -4.601180000000000
H      -8.196970000000000     -3.360960000000000     -4.245990000000000
H     -10.691649999999999     -2.897750000000000     -1.848230000000000
H      -9.916449999999999     -2.255070000000000     -3.310690000000000
H     -11.952900000000000     -4.599920000000000     -3.148290000000000
H     -12.302280000000000     -2.921070000000000     -3.707540000000000
H     -11.224090000000000     -3.979010000000000     -4.684520000000000
H      -7.574270000000000     -6.112660000000000     -3.026020000000000
H      -6.661100000000000     -5.293860000000000     -4.352750000000000
H      -6.695120000000000     -4.568070000000000     -2.700850000000000
C      -5.903540000000000     -1.745360000000000     -0.890820000000000
C      -4.969390000000000     -3.597520000000000      0.137410000000000
O      -6.114200000000000     -3.078320000000000     -0.494020000000000
C      -7.184050000000000     -1.235860000000000     -1.538870000000000
C      -5.252800000000000     -5.047050000000000      0.509080000000000
H      -5.679400000000000     -1.098590000000000     -0.012500000000000
H      -5.089160000000000     -1.685710000000000     -1.646320000000000
H      -4.094530000000000     -3.582330000000000     -0.551110000000000
H      -4.745460000000000     -3.036820000000000      1.072800000000000
H      -5.480640000000000     -5.633950000000000     -0.406540000000000
H      -4.370640000000000     -5.493500000000000      1.012800000000000
H      -6.126360000000000     -5.101260000000000      1.194650000000000
H      -8.025480000000000     -1.284780000000000     -0.814260000000000
H      -7.054250000000000     -0.185600000000000     -1.872420000000000
H      -7.435730000000000     -1.862690000000000     -2.419350000000000
Mg    -16.097709999999999     -5.525040000000000      5.025590000000000
H     -18.047249999999998     -7.444190000000000      3.606160000000000
C     -16.130929999999999     -8.386270000000000      3.135380000000000
C     -17.012589999999999     -7.165130000000000      3.318820000000000
C     -16.673980000000000     -9.243580000000000      1.996020000000000
H     -15.094740000000000     -8.055170000000000      2.905130000000000
H     -16.115780000000001     -8.966139999999999      4.084260000000000
H     -17.713999999999999     -9.556229999999999      2.234660000000000
H     -16.683430000000001     -8.644990000000000      1.058810000000000
C     -15.819480000000000    -10.484230000000000      1.784490000000000
H     -17.007719999999999     -6.519730000000000      2.415650000000000
H     -14.778589999999999    -10.193720000000001      1.531330000000000
H     -15.813450000000000    -11.107490000000000      2.703760000000000
H     -16.242629999999998    -11.078650000000000      0.948330000000000
C     -18.302750000000000     -3.651580000000000      6.323540000000000
C     -18.259830000000001     -2.796980000000000      7.412640000000000
C     -16.980340000000002     -2.879750000000000      7.941460000000000
C     -16.302340000000001     -3.791440000000000      7.162470000000000
N     -17.103680000000001     -4.240640000000000      6.187450000000000
C     -14.864260000000000     -4.255770000000000      7.315100000000000
N     -14.591630000000000     -5.367740000000000      6.379450000000000
C     -13.273050000000000     -6.024390000000000      6.333780000000000
H     -19.068100000000001     -2.178960000000000      7.779510000000000
H     -19.152149999999999     -3.824910000000000      5.675250000000000
H     -16.593039999999998     -2.345580000000000      8.797840000000001
H     -14.719740000000000     -4.604760000000000      8.354979999999999
H     -14.204020000000000     -3.390230000000000      7.103510000000000
C     -13.001740000000000     -6.738530000000000      7.671530000000000
C     -13.284010000000000     -7.078710000000000      5.211850000000000
C     -12.163290000000000     -4.999830000000000      6.039430000000000
H     -13.800440000000000     -7.485130000000000      7.876260000000000
H     -12.025069999999999     -7.267000000000000      7.645300000000000
H     -12.972149999999999     -6.018680000000000      8.514220000000000
H     -13.468650000000000     -6.602290000000000      4.225400000000000
H     -12.306440000000000     -7.608550000000000      5.162490000000000
H     -14.077140000000000     -7.836050000000000      5.390740000000000
H     -12.361480000000000     -4.483350000000000      5.075570000000000
H     -12.098630000000000     -4.239950000000000      6.844840000000000
H     -11.175340000000000     -5.504460000000000      5.973740000000000
