170

Mg     -0.662660000000000     -0.517620000000000     -0.532100000000000
C       2.047010000000000     -0.793040000000000      1.314360000000000
C       2.608170000000000      0.067370000000000     -0.847620000000000
O       1.657630000000000     -0.581730000000000     -0.031400000000000
C       2.620070000000000      0.430600000000000      2.033030000000000
C       3.834470000000000     -0.793820000000000     -1.106170000000000
H       1.120700000000000     -1.063310000000000      1.858160000000000
H       2.724000000000000     -1.667140000000000      1.396570000000000
H       2.118420000000000      0.248170000000000     -1.823520000000000
H       2.866040000000000      1.077570000000000     -0.473240000000000
H       4.482920000000000     -0.286310000000000     -1.849910000000000
H       3.527900000000000     -1.782750000000000     -1.505480000000000
H       4.405230000000000     -0.936790000000000     -0.168020000000000
H       1.944520000000000      1.295690000000000      1.930650000000000
H       3.621090000000000      0.689430000000000      1.633430000000000
H       2.721820000000000      0.208520000000000      3.114050000000000
H      -0.401360000000000     -2.792550000000000     -1.898130000000000
C      -1.172750000000000     -1.402010000000000     -3.409060000000000
C      -1.155790000000000     -1.985060000000000     -1.985560000000000
C       0.132090000000000     -0.713680000000000     -3.856700000000000
H      -1.411830000000000     -2.221320000000000     -4.118400000000000
H      -1.980280000000000     -0.640930000000000     -3.465010000000000
H      -0.008560000000000     -0.341490000000000     -4.896730000000000
H       0.330050000000000      0.168310000000000     -3.215010000000000
C       1.349200000000000     -1.638490000000000     -3.852310000000000
H      -2.154280000000000     -2.385250000000000     -1.725230000000000
H       1.559740000000000     -1.998500000000000     -2.827070000000000
H       1.180980000000000     -2.509110000000000     -4.519300000000000
H       2.242890000000000     -1.082690000000000     -4.212260000000000
C       0.860530000000000      3.093590000000000     -0.888190000000000
C      -0.197230000000000      2.651500000000000     -1.649300000000000
C      -1.085260000000000      2.020390000000000     -0.795920000000000
C      -0.572430000000000      2.052980000000000      0.439040000000000
N       0.652390000000000      2.749650000000000      0.454470000000000
C      -1.170230000000000      1.403100000000000      1.658780000000000
N      -1.280110000000000     -0.041990000000000      1.421110000000000
C      -1.981640000000000     -0.884120000000000      2.419820000000000
H      -0.291070000000000      2.762700000000000     -2.721230000000000
H       1.733650000000000      3.612850000000000     -1.257020000000000
H      -2.007830000000000      1.533190000000000     -1.088590000000000
H      -2.158140000000000      1.857890000000000      1.859100000000000
H      -0.492500000000000      1.586240000000000      2.518980000000000
C      -3.483150000000000     -0.539300000000000      2.463380000000000
C      -1.824420000000000     -2.360390000000000      2.019110000000000
C      -1.371130000000000     -0.693430000000000      3.828940000000000
H      -3.946870000000000     -0.699770000000000      1.467830000000000
H      -4.008240000000000     -1.177570000000000      3.207590000000000
H      -3.650210000000000      0.513480000000000      2.768590000000000
H      -0.754430000000000     -2.657360000000000      2.014170000000000
H      -2.362150000000000     -3.021440000000000      2.735880000000000
H      -2.242230000000000     -2.533740000000000      1.005390000000000
H      -0.287440000000000     -0.937530000000000      3.826500000000000
H      -1.494510000000000      0.349340000000000      4.185910000000000
H      -1.870500000000000     -1.356020000000000      4.569690000000000
Na     -1.914780000000000      6.513810000000000      6.174220000000000
C      -3.217620000000000      3.818130000000000      5.057590000000000
C      -3.360990000000000      5.366310000000000      3.301740000000000
O      -3.394640000000000      5.175850000000000      4.703120000000000
C      -1.738440000000000      3.493210000000000      5.237150000000000
C      -4.756630000000000      5.243700000000000      2.695760000000000
H      -3.731330000000000      3.651220000000000      6.028090000000000
H      -3.691630000000000      3.118440000000000      4.332830000000000
H      -2.983890000000000      6.393560000000000      3.109710000000000
H      -2.653180000000000      4.675620000000000      2.791610000000000
H      -5.442030000000000      5.993610000000000      3.142700000000000
H      -4.699970000000000      5.425540000000000      1.602270000000000
H      -5.170060000000000      4.228380000000000      2.866090000000000
H      -1.294110000000000      4.148510000000000      6.015320000000000
H      -1.628180000000000      2.436560000000000      5.555710000000000
H      -1.188010000000000      3.636590000000000      4.285110000000000
C       0.518640000000000      6.536770000000000      3.857280000000000
C       1.030510000000000      7.998530000000000      5.671400000000000
O       0.062060000000000      7.186190000000000      5.030750000000000
C       1.652000000000000      5.540410000000000      4.103940000000000
C       1.498470000000000      9.178879999999999      4.820400000000000
H      -0.340980000000000      5.951570000000000      3.468250000000000
H       0.770200000000000      7.261660000000000      3.056330000000000
H       0.536410000000000      8.427440000000001      6.569810000000000
H       1.882060000000000      7.401860000000000      6.058670000000000
H       0.623380000000000      9.764390000000001      4.467980000000000
H       2.150100000000000      9.836600000000001      5.433120000000000
H       2.091730000000000      8.831260000000000      3.950670000000000
H       1.357240000000000      4.812110000000000      4.888460000000000
H       1.864270000000000      4.989720000000000      3.163280000000000
H       2.582550000000000      6.061780000000000      4.406280000000000
Na     -5.369380000000000      6.281840000000000      5.481250000000000
C      -3.901890000000000      7.793190000000000      8.052099999999999
C      -3.920850000000000      9.139430000000001      6.138940000000000
O      -3.904330000000000      7.818250000000000      6.640210000000000
C      -4.247600000000000      6.384740000000000      8.518400000000000
C      -2.538650000000000      9.788840000000000      6.188070000000000
H      -2.889040000000000      8.038169999999999      8.432090000000001
H      -4.660550000000000      8.482450000000000      8.486730000000000
H      -4.228730000000000      9.080310000000001      5.072990000000000
H      -4.684390000000000      9.771580000000000      6.643710000000000
H      -1.806920000000000      9.171480000000001      5.627530000000000
H      -2.588110000000000     10.794340000000000      5.720100000000000
H      -2.193140000000000      9.908880000000000      7.235190000000000
H      -3.516880000000000      5.654310000000000      8.109750000000000
H      -4.220620000000000      6.336670000000000      9.627440000000000
H      -5.265290000000000      6.106170000000000      8.173930000000000
C      -8.352930000000001      6.816380000000000      6.822490000000000
C      -7.965830000000000      4.537210000000000      6.687590000000000
O      -7.408840000000000      5.818080000000000      6.519800000000000
C      -7.698430000000000      8.172359999999999      6.593750000000000
C      -6.887660000000000      3.508100000000000      6.374750000000000
H      -9.238810000000001      6.743750000000000      6.151930000000000
H      -8.659369999999999      6.756770000000000      7.890890000000000
H      -8.294800000000000      4.382460000000000      7.739850000000000
H      -8.811760000000000      4.378370000000000      5.981450000000000
H      -6.027310000000000      3.641410000000000      7.065050000000000
H      -7.290970000000000      2.481410000000000      6.496190000000000
H      -6.531200000000000      3.635020000000000      5.329460000000000
H      -7.377440000000000      8.267709999999999      5.533890000000000
H      -8.412190000000001      8.988320000000000      6.830270000000000
H      -6.807110000000000      8.275510000000001      7.246710000000000
Mg      0.811180000000000     13.423080000000001     10.501860000000001
C       1.870070000000000     10.983790000000001     13.313590000000000
C      -0.238030000000000     11.767370000000000     13.823119999999999
O       1.035540000000000     12.124930000000001     13.327299999999999
C       3.322720000000000     11.420850000000000     13.206360000000000
C      -1.173260000000000     12.964680000000000     13.730850000000000
H       1.783260000000000     10.391520000000000     14.252640000000000
H       1.624120000000000     10.340299999999999     12.442310000000001
H      -0.680300000000000     10.935070000000000     13.232880000000000
H      -0.169500000000000     11.472260000000000     14.892799999999999
H      -1.282450000000000     13.290179999999999     12.676580000000000
H      -2.174830000000000     12.689489999999999     14.124040000000001
H      -0.770650000000000     13.807779999999999     14.330330000000000
H       3.594300000000000     12.061280000000000     14.070580000000000
H       3.984430000000000     10.530160000000000     13.183840000000000
H       3.486730000000000     11.996250000000000     12.281739999999999
H      -0.139500000000000     15.718570000000000     12.688200000000000
C      -0.550790000000000     16.109729999999999     10.572300000000000
C       0.358700000000000     15.640160000000000     11.701029999999999
C      -1.836280000000000     15.275679999999999     10.505670000000000
H      -0.799250000000000     17.176250000000000     10.751760000000001
H      -0.007010000000000     16.021709999999999      9.605589999999999
H      -1.593400000000000     14.216340000000001     10.270320000000000
H      -2.358420000000000     15.311100000000000     11.485740000000000
C      -2.780990000000000     15.817090000000000      9.436400000000001
H       1.309700000000000     16.211290000000002     11.703320000000000
H      -3.053590000000000     16.868680000000001      9.669770000000000
H      -2.301880000000000     15.777970000000000      8.435100000000000
H      -3.709770000000000     15.208819999999999      9.413000000000000
C      -1.298520000000000     11.067570000000000     10.664360000000000
C      -1.207630000000000      9.731070000000001     10.316900000000000
C       0.072010000000000      9.533469999999999      9.819039999999999
C       0.714460000000000     10.748680000000000      9.907320000000000
N      -0.127310000000000     11.663560000000000     10.413779999999999
C       2.136140000000000     11.096399999999999      9.504170000000000
N       2.524680000000000     12.421099999999999     10.046900000000001
C       3.670010000000000     13.139089999999999      9.456000000000000
H      -1.986100000000000      8.989660000000001     10.415680000000000
H      -2.167010000000000     11.562889999999999     11.083940000000000
H       0.489230000000000      8.605270000000001      9.450360000000000
H       2.826860000000000     10.337780000000000      9.927009999999999
H       2.185130000000000     11.067900000000000      8.397130000000001
C       3.306300000000000     13.695589999999999      8.069310000000000
C       4.029510000000000     14.323350000000000     10.376690000000000
C       4.896340000000000     12.208370000000000      9.360849999999999
H       2.445240000000000     14.394000000000000      8.148270000000000
H       4.169020000000000     14.250840000000000      7.640310000000000
H       3.040450000000000     12.884740000000001      7.363120000000000
H       4.306880000000000     13.974299999999999     11.393459999999999
H       4.893680000000000     14.892560000000000      9.968460000000000
H       3.171560000000000     15.021340000000000     10.474589999999999
H       5.151290000000000     11.805059999999999     10.365309999999999
H       4.697860000000000     11.354329999999999      8.680800000000000
H       5.779270000000000     12.757389999999999      8.969989999999999
