170

Mg      0.890760000000000     -0.420040000000000     -0.020370000000000
C      -1.569280000000000      0.717510000000000      1.856670000000000
C      -0.420300000000000      2.539460000000000      0.813330000000000
O      -0.418790000000000      1.172990000000000      1.166320000000000
C      -2.909350000000000      1.101500000000000      1.225060000000000
C      -0.327190000000000      3.452660000000000      2.025990000000000
H      -1.521530000000000     -0.388800000000000      1.827780000000000
H      -1.527000000000000      1.004300000000000      2.926810000000000
H       0.484970000000000      2.710430000000000      0.199910000000000
H      -1.264050000000000      2.801270000000000      0.144910000000000
H      -0.206330000000000      4.500550000000000      1.681500000000000
H       0.547500000000000      3.171430000000000      2.648260000000000
H      -1.250250000000000      3.377430000000000      2.633220000000000
H      -2.932330000000000      0.821600000000000      0.158760000000000
H      -3.097810000000000      2.188810000000000      1.330020000000000
H      -3.727190000000000      0.554890000000000      1.735690000000000
H       2.876160000000000     -0.051800000000000      1.724110000000000
C       3.800910000000000      0.478470000000000     -0.192580000000000
C       2.898120000000000     -0.413560000000000      0.676460000000000
C       3.340770000000000      1.942960000000000     -0.335560000000000
H       4.825080000000000      0.460350000000000      0.234540000000000
H       3.838210000000000      0.045670000000000     -1.215230000000000
H       4.074410000000000      2.477580000000000     -0.980400000000000
H       2.360080000000000      1.979570000000000     -0.851220000000000
C       3.252850000000000      2.694120000000000      0.992850000000000
H       3.262490000000000     -1.458640000000000      0.656930000000000
H       2.496790000000000      2.228180000000000      1.653510000000000
H       4.236620000000000      2.697180000000000      1.506060000000000
H       2.945880000000000      3.747000000000000      0.807400000000000
C      -0.994410000000000      1.904510000000000     -2.580020000000000
C       0.231510000000000      1.342820000000000     -2.846210000000000
C       0.172790000000000      0.011460000000000     -2.470620000000000
C      -1.046790000000000     -0.220210000000000     -1.966140000000000
N      -1.847560000000000      0.931310000000000     -2.033180000000000
C      -1.507190000000000     -1.520610000000000     -1.357070000000000
N      -0.647780000000000     -1.841250000000000     -0.212370000000000
C      -0.809280000000000     -3.151880000000000      0.464440000000000
H       1.088090000000000      1.865530000000000     -3.253630000000000
H      -1.270270000000000      2.935340000000000     -2.743700000000000
H       0.985000000000000     -0.699620000000000     -2.522560000000000
H      -1.468060000000000     -2.310430000000000     -2.130010000000000
H      -2.554140000000000     -1.387760000000000     -1.009310000000000
C      -0.392470000000000     -4.302170000000000     -0.472190000000000
C       0.089940000000000     -3.178810000000000      1.710890000000000
C      -2.274980000000000     -3.362870000000000      0.914930000000000
H       0.665650000000000     -4.185170000000000     -0.786120000000000
H      -0.505850000000000     -5.282990000000000      0.040040000000000
H      -1.030400000000000     -4.337380000000000     -1.376790000000000
H      -0.204990000000000     -2.384870000000000      2.429010000000000
H       0.010490000000000     -4.160360000000000      2.230780000000000
H       1.151380000000000     -3.020410000000000      1.427210000000000
H      -2.600540000000000     -2.547070000000000      1.594970000000000
H      -2.967090000000000     -3.393570000000000      0.047860000000000
H      -2.386440000000000     -4.327040000000000      1.458450000000000
Na      1.727760000000000    -14.306060000000000     -5.645300000000000
C       0.991540000000000    -12.400639999999999     -8.105639999999999
C      -0.843770000000000    -12.268280000000001     -6.651730000000000
O       0.183720000000000    -13.090290000000000     -7.171640000000000
C       2.157900000000000    -11.708860000000000     -7.407200000000000
C      -2.108760000000000    -12.364660000000001     -7.500750000000000
H       1.403700000000000    -13.148720000000001     -8.815659999999999
H       0.413570000000000    -11.676040000000000     -8.722400000000000
H      -1.079410000000000    -12.629550000000000     -5.627970000000000
H      -0.529630000000000    -11.206440000000001     -6.541000000000000
H      -2.471690000000000    -13.412660000000001     -7.540250000000000
H      -2.903150000000000    -11.733590000000000     -7.050540000000000
H      -1.915560000000000    -12.009250000000000     -8.533799999999999
H       2.769060000000000    -12.453370000000000     -6.855270000000000
H       2.798710000000000    -11.209300000000001     -8.162970000000000
H       1.788870000000000    -10.943669999999999     -6.694250000000000
C       1.606360000000000    -11.782010000000000     -3.413030000000000
C       2.719070000000000    -13.690200000000001     -2.516710000000000
O       1.926460000000000    -13.153950000000000     -3.561840000000000
C       2.824510000000000    -10.858010000000000     -3.434250000000000
C       2.025820000000000    -13.676700000000000     -1.154280000000000
H       0.982830000000000    -11.508340000000000     -4.289880000000000
H       0.965020000000000    -11.602510000000001     -2.526080000000000
H       2.899210000000000    -14.756030000000001     -2.774210000000000
H       3.724430000000000    -13.222490000000001     -2.476000000000000
H       1.035020000000000    -14.172560000000001     -1.226640000000000
H       2.651450000000000    -14.225600000000000     -0.419640000000000
H       1.900320000000000    -12.640190000000000     -0.781580000000000
H       3.427270000000000    -11.039380000000000     -4.348870000000000
H       2.479890000000000     -9.803430000000001     -3.433260000000000
H       3.454170000000000    -11.005599999999999     -2.533820000000000
Na     -0.890680000000000    -15.112360000000001     -7.891820000000000
C       1.354300000000000    -17.169049999999999     -6.535310000000000
C      -0.447470000000000    -16.751830000000002     -5.101280000000000
O       0.355660000000000    -16.247689999999999     -6.149040000000000
C       1.928150000000000    -16.732089999999999     -7.877220000000000
C       0.239310000000000    -16.621440000000000     -3.743350000000000
H       2.180900000000000    -17.170369999999998     -5.792910000000000
H       0.949160000000000    -18.197479999999999     -6.667470000000000
H      -1.372580000000000    -16.137049999999999     -5.072850000000000
H      -0.780030000000000    -17.796650000000000     -5.289480000000000
H       0.508960000000000    -15.562260000000000     -3.552720000000000
H      -0.453320000000000    -16.962230000000002     -2.945550000000000
H       1.154150000000000    -17.246960000000001     -3.701410000000000
H       2.346060000000000    -15.705410000000001     -7.800900000000000
H       2.737020000000000    -17.426780000000001     -8.186809999999999
H       1.134580000000000    -16.739879999999999     -8.653269999999999
C      -1.995080000000000    -17.559909999999999     -9.840280000000000
C      -1.094070000000000    -15.882040000000000    -11.156459999999999
O      -1.282410000000000    -16.346699999999998     -9.841970000000000
C      -2.191690000000000    -17.992609999999999     -8.393549999999999
C      -0.295010000000000    -14.587400000000001    -11.091010000000001
H      -3.000540000000000    -17.432259999999999    -10.301280000000000
H      -1.418260000000000    -18.355440000000002    -10.363170000000000
H      -0.511380000000000    -16.616409999999998    -11.757000000000000
H      -2.071520000000000    -15.661550000000000    -11.641740000000000
H       0.688870000000000    -14.775210000000000    -10.610220000000000
H      -0.126290000000000    -14.189520000000000    -12.113160000000001
H      -0.846530000000000    -13.828780000000000    -10.494289999999999
H      -2.765010000000000    -17.219220000000000     -7.838100000000000
H      -2.745800000000000    -18.953060000000001     -8.352069999999999
H      -1.205390000000000    -18.126359999999998     -7.902910000000000
Mg      1.242770000000000     -4.642270000000000     -8.054220000000001
C      -0.594640000000000     -3.909850000000000     -5.337070000000000
C      -1.900340000000000     -3.596000000000000     -7.313910000000000
O      -0.618890000000000     -3.790480000000000     -6.749670000000000
C      -1.555510000000000     -4.951530000000000     -4.758560000000000
C      -2.514710000000000     -2.252250000000000     -6.940450000000000
H       0.426230000000000     -4.253190000000000     -5.075360000000000
H      -0.723450000000000     -2.920860000000000     -4.851320000000000
H      -1.770100000000000     -3.603270000000000     -8.413760000000000
H      -2.581420000000000     -4.445300000000000     -7.106790000000000
H      -3.462470000000000     -2.119140000000000     -7.502770000000000
H      -1.820130000000000     -1.427820000000000     -7.203570000000000
H      -2.738740000000000     -2.214240000000000     -5.856000000000000
H      -1.406370000000000     -5.930680000000000     -5.248820000000000
H      -2.609430000000000     -4.628290000000000     -4.876090000000000
H      -1.355970000000000     -5.075510000000000     -3.676190000000000
H       1.991370000000000     -2.127030000000000     -8.671780000000000
C       1.641810000000000     -3.062390000000000    -10.619859999999999
C       2.192640000000000     -3.088980000000000     -9.185490000000000
C       0.110440000000000     -2.923120000000000    -10.723710000000001
H       2.124080000000000     -2.229990000000000    -11.174609999999999
H       1.918310000000000     -4.018660000000000    -11.113460000000000
H      -0.165890000000000     -2.933320000000000    -11.801900000000000
H      -0.379370000000000     -3.795800000000000    -10.245180000000000
C      -0.436380000000000     -1.631780000000000    -10.115220000000001
H       3.286740000000000     -3.264000000000000     -9.205090000000000
H      -0.240610000000000     -1.599090000000000     -9.025690000000001
H       0.024310000000000     -0.745920000000000    -10.599800000000000
H      -1.536980000000000     -1.586250000000000    -10.268610000000001
C      -1.977310000000000     -6.873860000000000     -8.686249999999999
C      -0.997950000000000     -6.696120000000000     -9.636680000000000
C       0.222910000000000     -6.859310000000000     -9.008520000000001
C      -0.002900000000000     -7.106670000000000     -7.715390000000000
N      -1.385200000000000     -7.155570000000000     -7.444370000000000
C       1.064180000000000     -7.272440000000000     -6.667520000000000
N       1.842440000000000     -6.028390000000000     -6.582230000000000
C       3.049380000000000     -5.993960000000000     -5.721330000000000
H      -1.163650000000000     -6.453110000000000    -10.677840000000000
H      -3.042240000000000     -6.797410000000000     -8.855940000000000
H       1.196040000000000     -6.759240000000000     -9.471240000000000
H       1.701570000000000     -8.132989999999999     -6.948560000000000
H       0.573350000000000     -7.474430000000000     -5.692350000000000
C       4.143600000000000     -6.931100000000000     -6.270660000000000
C       3.596100000000000     -4.557230000000000     -5.697050000000000
C       2.701870000000000     -6.406660000000000     -4.271720000000000
H       4.420040000000000     -6.642460000000000     -7.306250000000000
H       5.054510000000000     -6.879340000000000     -5.634150000000000
H       3.811010000000000     -7.989170000000000     -6.271690000000000
H       2.842530000000000     -3.854820000000000     -5.282810000000000
H       4.508840000000000     -4.496460000000000     -5.062410000000000
H       3.862760000000000     -4.224060000000000     -6.721820000000000
H       1.918310000000000     -5.741900000000000     -3.849830000000000
H       2.336420000000000     -7.452700000000000     -4.224680000000000
H       3.598560000000000     -6.341790000000000     -3.617040000000000
