170

Mg      0.070430000000000     -0.413220000000000     -0.315780000000000
C      -1.057900000000000      1.722590000000000     -2.408330000000000
C       0.958080000000000      0.722200000000000     -3.196310000000000
O       0.241850000000000      1.255210000000000     -2.102400000000000
C      -1.991830000000000      0.653240000000000     -2.974210000000000
C       1.398520000000000      1.806100000000000     -4.166880000000000
H      -1.497170000000000      2.042570000000000     -1.445900000000000
H      -1.033890000000000      2.638360000000000     -3.031630000000000
H       1.874730000000000      0.256310000000000     -2.773090000000000
H       0.420890000000000     -0.103810000000000     -3.706000000000000
H       1.917760000000000      2.614140000000000     -3.609750000000000
H       2.093640000000000      1.371490000000000     -4.914540000000000
H       0.519530000000000      2.222420000000000     -4.698500000000000
H      -1.928960000000000     -0.275160000000000     -2.372740000000000
H      -3.036380000000000      1.028010000000000     -2.945520000000000
H      -1.734450000000000      0.428780000000000     -4.028020000000000
H      -0.892930000000000     -2.748580000000000     -0.939270000000000
C       1.271220000000000     -2.994880000000000     -0.852430000000000
C       0.030070000000000     -2.242590000000000     -1.286420000000000
C       1.370910000000000     -3.032910000000000      0.676710000000000
H       1.205900000000000     -4.018640000000000     -1.271370000000000
H       2.174180000000000     -2.484930000000000     -1.256800000000000
H       1.541090000000000     -2.006430000000000      1.064110000000000
H       0.427590000000000     -3.418350000000000      1.117830000000000
C       2.512970000000000     -3.937700000000000      1.121200000000000
H       0.002560000000000     -2.108920000000000     -2.386390000000000
H       2.314810000000000     -4.975500000000000      0.777460000000000
H       3.479130000000000     -3.589450000000000      0.698870000000000
H       2.581890000000000     -3.938810000000000      2.229230000000000
C       2.557980000000000      0.104780000000000      2.558740000000000
C       2.828420000000000      0.483060000000000      1.263130000000000
C       1.746150000000000      1.218840000000000      0.815430000000000
C       0.837090000000000      1.267650000000000      1.795950000000000
N       1.306130000000000      0.603490000000000      2.947380000000000
C      -0.516750000000000      1.924330000000000      1.730440000000000
N      -1.434080000000000      1.184840000000000      0.845120000000000
C      -2.440990000000000      0.294390000000000      1.473920000000000
H       3.718950000000000      0.227400000000000      0.703370000000000
H       3.198560000000000     -0.496080000000000      3.187680000000000
H       1.653650000000000      1.655860000000000     -0.166950000000000
H      -0.396390000000000      2.958370000000000      1.341950000000000
H      -0.917680000000000      2.003510000000000      2.752590000000000
C      -3.421130000000000      1.106390000000000      2.343690000000000
C      -3.249760000000000     -0.368780000000000      0.340820000000000
C      -1.782810000000000     -0.824450000000000      2.309390000000000
H      -3.857570000000000      1.937550000000000      1.750140000000000
H      -4.247290000000000      0.456770000000000      2.704590000000000
H      -2.934320000000000      1.527420000000000      3.244030000000000
H      -2.594320000000000     -1.004990000000000     -0.288530000000000
H      -4.055120000000000     -1.019900000000000      0.747250000000000
H      -3.717660000000000      0.400120000000000     -0.310870000000000
H      -1.156810000000000     -1.482210000000000      1.669620000000000
H      -1.148350000000000     -0.407430000000000      3.114500000000000
H      -2.560210000000000     -1.457610000000000      2.790830000000000
Na     -4.703560000000000     13.158980000000000      2.756650000000000
C      -6.377870000000000     15.635450000000001      1.626130000000000
C      -4.966210000000000     14.985980000000000     -0.130680000000000
O      -5.114080000000000     15.108820000000000      1.271050000000000
C      -7.399680000000000     14.517590000000000      1.807230000000000
C      -4.373870000000000     16.256170000000001     -0.735890000000000
H      -6.265130000000000     16.165289999999999      2.595640000000000
H      -6.746750000000000     16.395250000000001      0.900800000000000
H      -4.266370000000000     14.145170000000000     -0.323990000000000
H      -5.918420000000000     14.719609999999999     -0.641030000000000
H      -3.382340000000000     16.474609999999998     -0.288040000000000
H      -4.243440000000000     16.116689999999998     -1.829330000000000
H      -5.046530000000000     17.121970000000001     -0.566170000000000
H      -7.054860000000000     13.805770000000001      2.586110000000000
H      -8.371040000000001     14.951240000000000      2.123340000000000
H      -7.549990000000000     13.967610000000001      0.856010000000000
C      -5.892690000000000     11.038850000000000      0.425250000000000
C      -4.882730000000000      9.865230000000000      2.238800000000000
O      -5.101200000000000     11.110270000000000      1.598150000000000
C      -7.322370000000000     10.556330000000001      0.673430000000000
C      -4.093670000000000      8.869970000000000      1.388210000000000
H      -5.969170000000000     12.075450000000000      0.035000000000000
H      -5.391760000000000     10.457420000000001     -0.375530000000000
H      -4.265600000000000     10.078300000000000      3.138140000000000
H      -5.825670000000000      9.425920000000000      2.624770000000000
H      -3.148180000000000      9.334860000000001      1.037930000000000
H      -3.851710000000000      7.976000000000000      2.000450000000000
H      -4.689770000000000      8.530980000000000      0.516990000000000
H      -7.805300000000000     11.177500000000000      1.456820000000000
H      -7.905510000000000     10.645980000000000     -0.267190000000000
H      -7.337180000000000      9.490300000000000      0.977400000000000
Na     -3.163160000000000     16.267640000000000      2.040980000000000
C      -2.594050000000000     14.240660000000000      4.620170000000000
C      -1.417240000000000     13.584330000000000      2.708220000000000
O      -2.569910000000000     14.231190000000000      3.208300000000000
C      -3.640980000000000     15.244120000000001      5.086240000000000
C      -1.547910000000000     12.062810000000001      2.756300000000000
H      -2.888900000000000     13.240890000000000      4.999320000000000
H      -1.618080000000000     14.552619999999999      5.055770000000000
H      -1.312500000000000     13.881290000000000      1.642700000000000
H      -0.488260000000000     13.928070000000000      3.214590000000000
H      -2.448880000000000     11.739730000000000      2.195370000000000
H      -0.652910000000000     11.601830000000000      2.288430000000000
H      -1.617660000000000     11.703110000000001      3.803210000000000
H      -4.638980000000000     14.975709999999999      4.678350000000000
H      -3.695370000000000     15.245509999999999      6.195310000000000
H      -3.373820000000000     16.264469999999999      4.740670000000000
C      -1.215160000000000     18.585619999999999      3.390950000000000
C      -3.382080000000000     19.389730000000000      3.256140000000000
O      -2.551780000000000     18.266449999999999      3.088930000000000
C      -0.367200000000000     17.341529999999999      3.162260000000000
C      -4.812550000000000     18.971550000000001      2.943410000000000
H      -0.835830000000000     19.389209999999999      2.720040000000000
H      -1.113350000000000     18.881239999999998      4.459220000000000
H      -3.351490000000000     19.752379999999999      4.308270000000000
H      -3.096240000000000     20.201380000000000      2.549720000000000
H      -5.127870000000000     18.160190000000000      3.633870000000000
H      -5.499210000000000     19.834859999999999      3.064780000000000
H      -4.881050000000000     18.599399999999999      1.898140000000000
H      -0.445360000000000     17.015490000000000      2.102560000000000
H       0.696220000000000     17.553080000000001      3.398090000000000
H      -0.722330000000000     16.518000000000001      3.815850000000000
Mg     -0.075510000000000      7.343930000000000      7.063030000000000
C      -2.719190000000000      7.647480000000000      9.885540000000001
C      -0.985940000000000      9.080650000000000     10.394769999999999
O      -1.313680000000000      7.798950000000000      9.899580000000000
C      -3.067020000000000      6.170990000000000      9.778010000000000
C       0.518360000000000      9.291630000000000     10.299730000000000
H      -3.188790000000000      8.018900000000000     10.824610000000000
H      -3.152890000000000      8.182340000000000      9.013920000000001
H      -1.486200000000000      9.879860000000001      9.804790000000001
H      -1.273860000000000      9.168580000000000     11.465100000000000
H       0.852510000000000      9.222630000000001      9.244750000000000
H       0.781710000000000     10.296790000000000     10.691839999999999
H       1.048240000000000      8.521620000000000     10.898600000000000
H      -2.648970000000000      5.615750000000000     10.642810000000001
H      -4.169230000000000      6.043230000000000      9.754880000000000
H      -2.649640000000000      5.741630000000000      8.853389999999999
H       2.395970000000000      7.019170000000000      9.257520000000000
C       2.935910000000000      7.179670000000000      7.141650000000000
C       2.075790000000000      6.626840000000000      8.271280000000001
C       2.854940000000000      8.709800000000000      7.075240000000000
H       3.984350000000000      6.862480000000000      7.319930000000000
H       2.587120000000000      6.752150000000000      6.175490000000000
H       1.815250000000000      9.027910000000000      6.842180000000000
H       3.148280000000000      9.144520000000000      8.054760000000000
C       3.793050000000000      9.258340000000000      6.003890000000000
H       2.097660000000000      5.517700000000000      8.274369999999999
H       4.841040000000000      8.970400000000000      6.235000000000000
H       3.517950000000000      8.862299999999999      5.003300000000000
H       3.728660000000000     10.366709999999999      5.980410000000000
C      -1.061000000000000     10.349750000000000      7.226670000000000
C      -2.263900000000000     10.938380000000000      6.880060000000000
C      -3.076730000000000      9.929880000000001      6.382860000000000
C      -2.344280000000000      8.765710000000000      6.471710000000000
N      -1.132190000000000      9.035410000000001      6.975330000000000
C      -2.757090000000000      7.359660000000000      6.070120000000000
N      -1.802230000000000      6.361620000000000      6.611670000000000
C      -1.752160000000000      5.010890000000000      6.020120000000000
H      -2.516370000000000     11.983960000000000      6.979080000000000
H      -0.197440000000000     10.852720000000000      7.644940000000000
H      -4.088850000000000     10.033460000000000      6.015560000000000
H      -3.757530000000000      7.141900000000000      6.497380000000000
H      -2.810730000000000      7.329640000000000      4.963500000000000
C      -1.087920000000000      5.048880000000000      4.633910000000000
C      -0.905600000000000      4.108820000000000      6.941290000000000
C      -3.170420000000000      4.412220000000000      5.924230000000000
H      -0.053600000000000      5.447890000000000      4.713080000000000
H      -1.035620000000000      4.024400000000000      4.206520000000000
H      -1.658730000000000      5.682390000000000      3.927010000000000
H      -1.347110000000000      4.043580000000000      7.957930000000000
H      -0.843510000000000      3.075710000000000      6.533480000000000
H       0.127240000000000      4.504380000000000      7.039730000000000
H      -3.647220000000000      4.391770000000000      6.928710000000000
H      -3.811740000000000      5.010680000000000      5.244680000000000
H      -3.134690000000000      3.373350000000000      5.532300000000000
