110

Mg      0.781040000000000     -0.339440000000000     -0.533710000000000
C      -0.335840000000000      2.145050000000000      1.314300000000000
C      -1.361630000000000      2.200640000000000     -0.847610000000000
O      -0.324230000000000      1.701920000000000     -0.031380000000000
C      -1.682000000000000      2.029420000000000      2.033040000000000
C      -1.228960000000000      3.693250000000000     -1.106180000000000
H       0.361490000000000      1.478220000000000      1.858220000000000
H       0.082540000000000      3.168440000000000      1.396370000000000
H      -1.273390000000000      1.686110000000000     -1.823520000000000
H      -2.365430000000000      1.918920000000000     -0.473220000000000
H      -1.992750000000000      4.001080000000000     -1.849870000000000
H      -0.219260000000000      3.922200000000000     -1.505570000000000
H      -1.390470000000000      4.259070000000000     -0.168050000000000
H      -2.093190000000000      1.011700000000000      1.930880000000000
H      -2.406810000000000      2.766720000000000      1.633330000000000
H      -1.540550000000000      2.228840000000000      3.114010000000000
H       2.620440000000000      1.024340000000000     -1.898470000000000
C       1.801700000000000     -0.339140000000000     -3.409300000000000
C       2.298510000000000     -0.032770000000000     -1.986020000000000
C       0.553010000000000      0.446660000000000     -3.856670000000000
H       2.630620000000000     -0.136620000000000     -4.118810000000000
H       1.546270000000000     -1.419020000000000     -3.465030000000000
H       0.300830000000000      0.138720000000000     -4.896640000000000
H      -0.309690000000000      0.177110000000000     -3.214820000000000
C       0.745290000000000      1.963120000000000     -3.852330000000000
H       3.144200000000000     -0.697500000000000     -1.725560000000000
H       0.951820000000000      2.325500000000000     -2.827110000000000
H       1.583340000000000      2.252750000000000     -4.519370000000000
H      -0.182930000000000      2.459110000000000     -4.212250000000000
C      -3.108740000000000     -0.826080000000000     -0.888720000000000
C      -2.197050000000000     -1.520920000000000     -1.650030000000000
C      -1.205830000000000     -1.973480000000000     -0.797070000000000
C      -1.489940000000000     -1.545180000000000      0.437710000000000
N      -2.706180000000000     -0.833730000000000      0.453750000000000
C      -0.627450000000000     -1.737550000000000      1.656650000000000
N       0.678070000000000     -1.108710000000000      1.420350000000000
C       1.757710000000000     -1.297220000000000      2.419300000000000
H      -2.246770000000000     -1.658310000000000     -2.721820000000000
H      -3.995370000000000     -0.330100000000000     -1.257310000000000
H      -0.322600000000000     -2.528850000000000     -1.089650000000000
H      -0.524350000000000     -2.820250000000000      1.853260000000000
H      -1.125530000000000     -1.244520000000000      2.517860000000000
C       2.210180000000000     -2.770080000000000      2.461930000000000
C       2.957820000000000     -0.423260000000000      2.019370000000000
C       1.286620000000000     -0.865120000000000      3.828970000000000
H       2.581130000000000     -3.091360000000000      1.466450000000000
H       3.025360000000000     -2.906030000000000      3.206310000000000
H       1.382410000000000     -3.441550000000000      2.766940000000000
H       2.680030000000000      0.651800000000000      2.014510000000000
H       3.798950000000000     -0.559000000000000      2.736220000000000
H       3.316780000000000     -0.698510000000000      1.005600000000000
H       0.956440000000000      0.195530000000000      3.826850000000000
H       0.444560000000000     -1.493560000000000      4.186810000000000
H       2.110340000000000     -0.966330000000000      4.569510000000000
Na     -9.517690000000000     -2.119930000000000     11.532389999999999
C      -9.019959999999999     -4.756920000000000      9.648890000000000
C      -7.112700000000000     -3.469140000000000      9.744899999999999
O      -8.503320000000000     -3.451540000000000      9.503520000000000
C     -10.516760000000000     -4.735120000000000      9.374430000000000
C      -6.564090000000000     -2.056590000000000      9.602029999999999
H      -8.551679999999999     -5.451010000000000      8.915940000000001
H      -8.869780000000000     -5.128050000000000     10.688240000000000
H      -6.895260000000000     -3.813670000000000     10.781750000000001
H      -6.590930000000000     -4.113990000000000      9.001300000000001
H      -7.053040000000000     -1.380600000000000     10.335520000000001
H      -5.469490000000000     -2.058130000000000      9.790279999999999
H      -6.751380000000000     -1.675650000000000      8.575600000000000
H     -10.710760000000001     -4.378690000000000      8.340460000000000
H     -10.933389999999999     -5.758760000000000      9.485160000000000
H     -11.027450000000000     -4.060050000000000     10.093629999999999
Na     -8.668139999999999     -2.991820000000000      6.913670000000000
Mg     -3.932230000000000     -6.922920000000000      4.364130000000000
H      -1.979690000000000     -8.189780000000001      2.337220000000000
C      -2.933030000000000     -9.977520000000000      3.159850000000000
C      -2.332830000000000     -8.591770000000000      3.309140000000000
C      -1.866960000000000    -10.946690000000000      2.657040000000000
H      -3.321410000000000    -10.313140000000001      4.146100000000000
H      -3.781440000000000     -9.928050000000001      2.442550000000000
H      -1.481200000000000    -10.591820000000000      1.676480000000000
H      -1.026580000000000    -10.977930000000001      3.384660000000000
C      -2.431210000000000    -12.349900000000000      2.489940000000000
H      -1.520850000000000     -8.579290000000000      4.066060000000000
H      -2.805870000000000    -12.731970000000000      3.463290000000000
H      -3.261150000000000    -12.344329999999999      1.751770000000000
H      -1.628240000000000    -13.022819999999999      2.123880000000000
C      -3.288290000000000     -3.901150000000000      3.658110000000000
C      -4.011630000000000     -2.733830000000000      3.845080000000000
C      -5.209300000000000     -3.096730000000000      4.443400000000000
C      -5.174020000000000     -4.465720000000000      4.582020000000000
N      -4.005460000000000     -4.936360000000000      4.113660000000000
C      -6.238670000000000     -5.371970000000000      5.171360000000000
N      -5.868290000000000     -6.788390000000000      4.965610000000000
C      -6.740820000000000     -7.884110000000000      5.422660000000000
H      -3.701250000000000     -1.733110000000000      3.579980000000000
H      -2.300440000000000     -3.980790000000000      3.220550000000000
H      -6.017920000000000     -2.439110000000000      4.735640000000000
H      -7.196670000000000     -5.163350000000000      4.657550000000000
H      -6.324000000000000     -5.137830000000000      6.252740000000000
C      -8.069670000000000     -7.850200000000000      4.644140000000000
C      -6.042380000000000     -9.225840000000000      5.136030000000000
C      -7.004760000000000     -7.775550000000000      6.934370000000000
H      -7.876330000000000     -7.938530000000000      3.552370000000000
H      -8.728930000000000     -8.689159999999999      4.953180000000000
H      -8.619750000000000     -6.905090000000000      4.826710000000000
H      -5.080320000000000     -9.294610000000000      5.687230000000000
H      -6.684600000000000    -10.077790000000000      5.453080000000000
H      -5.834130000000000     -9.337680000000001      4.050310000000000
H      -6.045980000000000     -7.796150000000000      7.495820000000000
H      -7.539460000000000     -6.835440000000000      7.175780000000000
H      -7.637360000000000     -8.620730000000000      7.281360000000000
