95

Mg     -0.627490000000000     -0.251820000000000      0.617000000000000
H      -2.266390000000000      2.131480000000000      1.461370000000000
C      -1.083740000000000      1.762230000000000      3.283710000000000
C      -1.917930000000000      1.294230000000000      2.099720000000000
C       0.245450000000000      2.424000000000000      2.880770000000000
H      -1.695750000000000      2.462470000000000      3.888050000000000
H      -0.839410000000000      0.874440000000000      3.906720000000000
H       0.759530000000000      2.741060000000000      3.814270000000000
H       0.899430000000000      1.690820000000000      2.362450000000000
C       0.074340000000000      3.647170000000000      1.981860000000000
H      -2.778100000000000      0.673370000000000      2.423400000000000
H      -0.343560000000000      3.352580000000000      0.996660000000000
H      -0.592820000000000      4.391850000000000      2.463190000000000
H       1.065730000000000      4.115530000000000      1.803060000000000
C       2.370220000000000     -0.740110000000000      1.548470000000000
C       3.470640000000000     -1.231100000000000      0.864060000000000
C       3.051540000000000     -1.501120000000000     -0.429520000000000
C       1.723090000000000     -1.150640000000000     -0.484900000000000
N       1.321540000000000     -0.700810000000000      0.713480000000000
C       0.785600000000000     -1.253520000000000     -1.671600000000000
N      -0.471920000000000     -0.532820000000000     -1.387290000000000
C      -1.538670000000000     -0.452150000000000     -2.402000000000000
H       4.464270000000000     -1.381840000000000      1.261470000000000
H       2.344140000000000     -0.438710000000000      2.588890000000000
H       3.646030000000000     -1.898190000000000     -1.241190000000000
H       0.592230000000000     -2.331530000000000     -1.850190000000000
H       1.279640000000000     -0.798690000000000     -2.549290000000000
C      -1.969250000000000     -1.855230000000000     -2.867410000000000
C      -2.756490000000000      0.263710000000000     -1.788280000000000
C      -1.039920000000000      0.375260000000000     -3.602430000000000
H      -2.325340000000000     -2.457610000000000     -2.004450000000000
H      -2.791900000000000     -1.781670000000000     -3.611400000000000
H      -1.127960000000000     -2.389850000000000     -3.354160000000000
H      -2.479850000000000      1.278950000000000     -1.430770000000000
H      -3.566790000000000      0.372260000000000     -2.544110000000000
H      -3.161230000000000     -0.311100000000000     -0.927980000000000
H      -0.742040000000000      1.393270000000000     -3.267520000000000
H      -0.164050000000000     -0.101940000000000     -4.086010000000000
H      -1.833130000000000      0.473790000000000     -4.372990000000000
Na      2.956330000000000     -1.236560000000000     13.108380000000000
C       5.382620000000000     -1.472080000000000     15.266480000000000
C       5.680220000000000     -2.988100000000000     13.557250000000000
O       4.763380000000000     -2.488280000000000     14.507140000000000
C       4.391670000000000     -0.941480000000000     16.293060000000001
C       5.002830000000000     -4.073350000000000     12.732410000000000
H       6.262780000000000     -1.872020000000000     15.819839999999999
H       5.684960000000000     -0.620840000000000     14.614860000000000
H       6.004580000000000     -2.184140000000000     12.857730000000000
H       6.561210000000000     -3.445250000000000     14.062970000000000
H       4.122330000000000     -3.655620000000000     12.199290000000000
H       5.717190000000000     -4.476330000000000     11.983480000000000
H       4.669540000000000     -4.902300000000000     13.392709999999999
H       4.070810000000000     -1.758890000000000     16.973279999999999
H       4.868790000000000     -0.139890000000000     16.896030000000000
H       3.498860000000000     -0.522540000000000     15.782030000000001
Na      4.490770000000000     -4.472170000000000     16.222829999999998
Mg      1.440020000000000     -3.140080000000000      8.607600000000000
H       0.920200000000000     -5.593090000000000      6.690950000000000
C      -0.166760000000000     -4.039020000000000      5.592350000000000
C       0.318270000000000     -4.681540000000000      6.881580000000000
C       0.981500000000000     -3.635320000000000      4.656700000000000
H      -0.816400000000000     -4.772160000000000      5.070400000000000
H      -0.776140000000000     -3.142860000000000      5.836040000000000
H       1.593270000000000     -4.526720000000000      4.397500000000000
H       0.529910000000000     -3.237660000000000      3.723330000000000
C       1.888100000000000     -2.549560000000000      5.240030000000000
H      -0.542190000000000     -4.924030000000000      7.541960000000000
H       2.434180000000000     -2.924010000000000      6.129300000000000
H       2.635630000000000     -2.249260000000000      4.474620000000000
H       1.294720000000000     -1.653240000000000      5.521030000000000
C       4.613150000000000     -3.246930000000000      8.477110000000000
C       5.582530000000000     -2.349890000000000      8.895330000000000
C       4.917850000000000     -1.256130000000000      9.428780000000000
C       3.573470000000000     -1.523190000000000      9.294180000000001
N       3.401890000000000     -2.729200000000000      8.735820000000000
C       2.405730000000000     -0.645240000000000      9.701960000000000
N       1.150750000000000     -1.199040000000000      9.151059999999999
C      -0.136980000000000     -0.513560000000000      9.359590000000001
H       6.653960000000000     -2.477880000000000      8.823280000000000
H       4.785630000000000     -4.212150000000000      8.018670000000000
H       5.362170000000000     -0.365330000000000      9.851200000000000
H       2.374890000000000     -0.609490000000000     10.809329999999999
H       2.571380000000000      0.368230000000000      9.291320000000001
C      -0.118020000000000      0.853580000000000      8.647770000000000
C      -1.254450000000000     -1.369380000000000      8.736820000000000
C      -0.426420000000000     -0.329130000000000     10.859810000000000
H       0.085880000000000      0.717840000000000      7.562590000000000
H      -1.094840000000000      1.370430000000000      8.759600000000001
H       0.662310000000000      1.518920000000000      9.069120000000000
H      -1.308520000000000     -2.365390000000000      9.226039999999999
H      -2.242030000000000     -0.869860000000000      8.854100000000001
H      -1.072420000000000     -1.522000000000000      7.651990000000000
H      -0.441460000000000     -1.313490000000000     11.374700000000001
H       0.341840000000000      0.312420000000000     11.338300000000000
H      -1.412230000000000      0.162890000000000     11.006910000000000
