95

Mg     -0.409440000000000      0.005010000000000      1.101530000000000
H      -3.262270000000000      0.734120000000000      1.889240000000000
C      -2.996500000000000      2.149230000000000      0.226460000000000
C      -2.484670000000000      1.372540000000000      1.425360000000000
C      -3.590320000000000      1.256310000000000     -0.873380000000000
H      -3.783610000000000      2.842550000000000      0.587600000000000
H      -2.167050000000000      2.753820000000000     -0.198950000000000
H      -4.435170000000000      0.656590000000000     -0.469920000000000
H      -3.986190000000000      1.933840000000000     -1.658050000000000
C      -2.575780000000000      0.319500000000000     -1.535680000000000
H      -2.039060000000000      2.059170000000000      2.178520000000000
H      -2.250760000000000     -0.477440000000000     -0.836860000000000
H      -3.053460000000000     -0.166150000000000     -2.414890000000000
H      -1.688340000000000      0.884180000000000     -1.892930000000000
C      -0.965710000000000     -3.066030000000000      0.503010000000000
C      -0.179490000000000     -4.037030000000000     -0.096650000000000
C       1.013470000000000     -3.426510000000000     -0.450120000000000
C       0.899300000000000     -2.110150000000000     -0.070250000000000
N      -0.293060000000000     -1.906300000000000      0.510300000000000
C       1.925830000000000     -1.006930000000000     -0.227820000000000
N       1.306440000000000      0.303130000000000      0.056820000000000
C       2.077120000000000      1.550080000000000     -0.101490000000000
H      -0.441010000000000     -5.073160000000000     -0.255270000000000
H      -1.961090000000000     -3.206230000000000      0.907680000000000
H       1.863360000000000     -3.883550000000000     -0.938800000000000
H       2.753540000000000     -1.214610000000000      0.481770000000000
H       2.296750000000000     -1.021720000000000     -1.268470000000000
C       2.424040000000000      1.754100000000000     -1.589480000000000
C       1.209470000000000      2.734570000000000      0.361570000000000
C       3.363100000000000      1.514480000000000      0.743500000000000
H       1.493350000000000      1.795320000000000     -2.197400000000000
H       2.986470000000000      2.699720000000000     -1.738770000000000
H       3.055470000000000      0.929290000000000     -1.975780000000000
H       0.947370000000000      2.637780000000000      1.436780000000000
H       1.753600000000000      3.695720000000000      0.221750000000000
H       0.268520000000000      2.784610000000000     -0.225580000000000
H       3.116820000000000      1.363560000000000      1.816330000000000
H       4.034370000000000      0.695760000000000      0.412160000000000
H       3.922880000000000      2.469080000000000      0.639170000000000
Na     -2.409210000000000     -4.622150000000000      6.772910000000000
C      -4.503290000000000     -3.862730000000000      9.147340000000000
C      -5.107040000000000     -5.850840000000000      8.151719999999999
O      -4.748190000000000     -4.506260000000000      7.915010000000000
C      -4.123170000000000     -2.411950000000000      8.886340000000001
C      -5.356140000000000     -6.543160000000000      6.819190000000000
H      -5.417700000000000     -3.864620000000000      9.783500000000000
H      -3.654110000000000     -4.345160000000000      9.682860000000000
H      -4.284120000000000     -6.396110000000000      8.667840000000000
H      -6.047380000000000     -5.908640000000000      8.746110000000000
H      -4.435990000000000     -6.519160000000000      6.197300000000000
H      -5.642860000000000     -7.601830000000000      6.994200000000000
H      -6.178710000000000     -6.034250000000000      6.272720000000000
H      -4.950010000000000     -1.888280000000000      8.361060000000000
H      -3.927190000000000     -1.895970000000000      9.850260000000000
H      -3.206700000000000     -2.363170000000000      8.260680000000001
Na     -6.985170000000000     -3.398390000000000      7.065320000000000
Mg     -1.392500000000000     -8.338460000000000      3.407020000000000
H      -2.338080000000000    -10.385970000000000      1.198980000000000
C      -0.172980000000000    -10.478140000000000      0.874970000000000
C      -1.443780000000000     -9.732120000000000      1.246510000000000
C       0.099050000000000    -11.684640000000000      1.784170000000000
H      -0.279650000000000    -10.832340000000000     -0.171510000000000
H       0.689380000000000     -9.779550000000000      0.921670000000000
H      -0.753130000000000    -12.397200000000000      1.738260000000000
H       1.004670000000000    -12.197690000000000      1.397330000000000
C       0.362310000000000    -11.300770000000000      3.241870000000000
H      -1.581510000000000     -8.848319999999999      0.586870000000000
H      -0.543620000000000    -10.862439999999999      3.706890000000000
H       0.640910000000000    -12.212009999999999      3.814070000000000
H       1.200600000000000    -10.574880000000000      3.310420000000000
C      -2.690030000000000     -9.852639999999999      5.881230000000000
C      -2.533580000000000     -9.686040000000000      7.247640000000000
C      -1.615330000000000     -8.662699999999999      7.427440000000000
C      -1.235810000000000     -8.263650000000000      6.165050000000000
N      -1.899930000000000     -8.974520000000000      5.243410000000000
C      -0.236500000000000     -7.185100000000000      5.791870000000000
N       0.055810000000000     -7.256680000000000      4.344650000000000
C       1.033780000000000     -6.347140000000000      3.721580000000000
H      -3.033740000000000    -10.244510000000000      8.027080000000000
H      -3.340310000000000    -10.565780000000000      5.391120000000000
H      -1.256000000000000     -8.266679999999999      8.367340000000000
H      -0.674630000000000     -6.203830000000000      6.063080000000000
H       0.694090000000000     -7.359390000000000      6.363550000000000
C       2.438920000000000     -6.629210000000000      4.288710000000000
C       1.058540000000000     -6.618440000000000      2.207430000000000
C       0.648070000000000     -4.876110000000000      3.958540000000000
H       2.717440000000000     -7.691420000000000      4.110390000000000
H       3.198490000000000     -5.980640000000000      3.802770000000000
H       2.482160000000000     -6.435830000000000      5.379500000000000
H       0.061200000000000     -6.426310000000000      1.759430000000000
H       1.802440000000000     -5.961950000000000      1.702830000000000
H       1.334570000000000     -7.674220000000000      2.002250000000000
H      -0.363950000000000     -4.670260000000000      3.548920000000000
H       0.652020000000000     -4.633230000000000      5.041090000000000
H       1.375530000000000     -4.199100000000000      3.460310000000000
