185

Mg      0.377220000000000     -0.061430000000000     -0.375090000000000
C      -0.457390000000000     -3.161520000000000      1.010170000000000
C       0.586240000000000     -1.663700000000000      2.547640000000000
O      -0.083220000000000     -1.830100000000000      1.312090000000000
C      -1.511410000000000     -3.730130000000000      1.954760000000000
C       1.933770000000000     -2.377540000000000      2.614350000000000
H      -0.906070000000000     -3.135390000000000     -0.006420000000000
H       0.416050000000000     -3.836700000000000      0.934630000000000
H       0.803580000000000     -0.581290000000000      2.642300000000000
H      -0.066310000000000     -1.905160000000000      3.410920000000000
H       2.555040000000000     -2.106050000000000      1.735920000000000
H       2.464340000000000     -2.065790000000000      3.538060000000000
H       1.796380000000000     -3.475990000000000      2.651550000000000
H      -2.390700000000000     -3.057340000000000      2.008990000000000
H      -1.840960000000000     -4.719000000000000      1.572400000000000
H      -1.089300000000000     -3.875020000000000      2.968580000000000
H       0.501780000000000     -2.273870000000000     -2.343430000000000
C       2.436350000000000     -2.593640000000000     -1.355220000000000
C       1.360090000000000     -1.701760000000000     -1.934660000000000
C       3.020510000000000     -3.459920000000000     -2.457460000000000
H       3.232270000000000     -1.967970000000000     -0.901410000000000
H       1.996970000000000     -3.229480000000000     -0.562320000000000
H       2.210290000000000     -4.076470000000000     -2.904290000000000
H       3.454430000000000     -2.804060000000000     -3.243380000000000
C       4.103910000000000     -4.373630000000000     -1.907760000000000
H       1.767530000000000     -0.976320000000000     -2.668890000000000
H       4.925670000000000     -3.770350000000000     -1.466080000000000
H       3.680710000000000     -5.043320000000000     -1.128720000000000
H       4.510140000000000     -4.990070000000000     -2.734850000000000
C      -2.889150000000000      3.596360000000000     -0.622060000000000
C      -1.845120000000000      4.450920000000000     -0.876060000000000
C      -0.758020000000000      4.018060000000000     -0.126670000000000
C      -1.120900000000000      2.921570000000000      0.550200000000000
N      -2.471640000000000      2.621690000000000      0.287970000000000
C      -0.310030000000000      2.101430000000000      1.531570000000000
N       0.829360000000000      1.346740000000000      0.976950000000000
C       2.149810000000000      1.918440000000000      0.682450000000000
H      -1.887600000000000      5.302940000000000     -1.540390000000000
H      -3.883520000000000      3.650340000000000     -1.046020000000000
H       0.199330000000000      4.510720000000000     -0.101940000000000
H      -1.003430000000000      1.330690000000000      1.932550000000000
H      -0.003820000000000      2.714410000000000      2.396940000000000
C       2.459630000000000      3.099370000000000      1.604560000000000
C       3.192840000000000      0.812060000000000      0.935450000000000
C       2.245340000000000      2.311420000000000     -0.806010000000000
H       2.380080000000000      2.769280000000000      2.663700000000000
H       3.483750000000000      3.479890000000000      1.421400000000000
H       1.744300000000000      3.923330000000000      1.432470000000000
H       2.987290000000000     -0.068300000000000      0.293880000000000
H       4.220330000000000      1.168370000000000      0.706870000000000
H       3.162170000000000      0.470720000000000      1.992010000000000
H       2.119870000000000      1.421560000000000     -1.462450000000000
H       1.473980000000000      3.037470000000000     -1.098760000000000
H       3.239070000000000      2.756890000000000     -1.024700000000000
C      -2.329640000000000      0.263040000000000     -1.968660000000000
C      -2.848200000000000     -0.543200000000000      0.188210000000000
O      -1.880790000000000     -0.460470000000000     -0.839570000000000
C      -1.174250000000000      1.070130000000000     -2.565610000000000
C      -3.908860000000000     -1.573400000000000     -0.138440000000000
H      -2.681300000000000     -0.460800000000000     -2.730970000000000
H      -3.151140000000000      0.974680000000000     -1.737060000000000
H      -2.331730000000000     -0.840880000000000      1.122290000000000
H      -3.322390000000000      0.423050000000000      0.425150000000000
H      -3.432240000000000     -2.556220000000000     -0.330420000000000
H      -4.606710000000000     -1.658000000000000      0.719960000000000
H      -4.473370000000000     -1.247960000000000     -1.035450000000000
H      -0.791800000000000      1.815320000000000     -1.844730000000000
H      -0.330750000000000      0.409790000000000     -2.850500000000000
H      -1.521020000000000      1.611610000000000     -3.469670000000000
Na      0.998170000000000      9.847770000000001      3.588680000000000
C      -0.306320000000000      7.151940000000000      2.473880000000000
C      -0.449270000000000      8.699640000000000      0.717460000000000
O      -0.482870000000000      8.509570000000000      2.118910000000000
C       1.172630000000000      6.826550000000000      2.654130000000000
C      -1.844600000000000      8.575950000000001      0.110990000000000
H      -0.819920000000000      6.985350000000000      3.444290000000000
H      -0.781040000000000      6.452520000000000      1.749750000000000
H      -0.072380000000000      9.727000000000000      0.525160000000000
H       0.258810000000000      8.009190000000000      0.207760000000000
H      -2.530190000000000      9.325950000000001      0.557460000000000
H      -1.787560000000000      8.757619999999999     -0.982520000000000
H      -2.257590000000000      7.560410000000000      0.281240000000000
H       1.617570000000000      7.482190000000000      3.431600000000000
H       1.281680000000000      5.770410000000000      2.974460000000000
H       1.723550000000000      6.968750000000000      1.702120000000000
C       3.431780000000000      9.871499999999999      1.273110000000000
C       3.943640000000000     11.333110000000000      3.086910000000000
O       2.975050000000000     10.520980000000000      2.446370000000000
C       4.565480000000000      8.875629999999999      1.520190000000000
C       4.411760000000000     12.513159999999999      2.235620000000000
H       2.572260000000000      9.286110000000001      0.884190000000000
H       3.683190000000000     10.596250000000000      0.471950000000000
H       3.449610000000000     11.762090000000001      3.985260000000000
H       4.795080000000000     10.736290000000000      3.474220000000000
H       3.536680000000000     13.098560000000001      1.882990000000000
H       5.063440000000000     13.170909999999999      2.848190000000000
H       5.005010000000000     12.165279999999999      1.365960000000000
H       4.270780000000000      8.147150000000000      2.304580000000000
H       4.778180000000000      8.325220000000000      0.579610000000000
H       5.496000000000000      9.397069999999999      1.822370000000000
Na     -2.456340000000000      9.615800000000000      2.896400000000000
C      -0.988700000000000     11.127020000000000      5.466990000000000
C      -1.007630000000000     12.473269999999999      3.553810000000000
O      -0.991090000000000     11.152089999999999      4.055100000000000
C      -1.334410000000000      9.718570000000000      5.933290000000000
C       0.374540000000000     13.122730000000001      3.602980000000000
H       0.024140000000000     11.372019999999999      5.847010000000000
H      -1.747370000000000     11.816290000000000      5.901610000000000
H      -1.315450000000000     12.414110000000001      2.487850000000000
H      -1.771220000000000     13.105390000000000      4.058540000000000
H       1.106320000000000     12.505430000000000      3.042450000000000
H       0.325050000000000     14.128240000000000      3.135010000000000
H       0.720030000000000     13.242789999999999      4.650110000000000
H      -0.603710000000000      8.988130000000000      5.524610000000000
H      -1.307390000000000      9.670489999999999      7.042330000000000
H      -2.352110000000000      9.440009999999999      5.588850000000000
C      -5.439580000000000     10.150040000000001      4.237280000000000
C      -5.052380000000000      7.870760000000000      4.102090000000000
O      -4.495490000000000      9.151730000000001      3.934460000000000
C      -4.785130000000000     11.506100000000000      4.008610000000000
C      -3.974210000000000      6.841570000000000      3.788970000000000
H      -6.325510000000000     10.077489999999999      3.566770000000000
H      -5.745990000000000     10.090410000000000      5.305690000000000
H      -5.381280000000000      7.715960000000000      5.154380000000000
H      -5.898420000000000      7.712040000000000      3.396070000000000
H      -3.113880000000000      6.974860000000000      4.479310000000000
H      -4.377440000000000      5.814840000000000      3.910440000000000
H      -3.617740000000000      6.968330000000000      2.743640000000000
H      -4.464170000000000     11.601550000000000      2.948750000000000
H      -5.498880000000000     12.322070000000000      4.245190000000000
H      -3.893800000000000     11.609270000000000      4.661550000000000
Mg      3.724410000000000     16.756969999999999      7.916960000000000
C       4.783270000000000     14.317729999999999     10.728370000000000
C       2.675160000000000     15.101279999999999     11.237909999999999
O       3.948710000000000     15.458860000000000     10.742070000000000
C       6.235920000000000     14.754790000000000     10.621150000000000
C       1.739910000000000     16.298590000000001     11.145730000000000
H       4.696460000000000     13.725470000000000     11.667420000000000
H       4.537320000000000     13.674230000000000      9.857100000000001
H       2.232870000000000     14.269000000000000     10.647660000000000
H       2.743700000000000     14.806120000000000     12.307570000000000
H       1.630670000000000     16.624140000000001     10.091469999999999
H       0.738360000000000     16.023389999999999     11.538940000000000
H       2.142550000000000     17.141670000000001     11.745220000000000
H       6.507490000000000     15.395239999999999     11.485350000000000
H       6.897630000000000     13.864100000000001     10.598649999999999
H       6.399950000000000     15.330170000000001      9.696520000000000
H       2.773820000000000     19.052219999999998     10.103059999999999
C       2.362460000000000     19.443500000000000      7.987160000000000
C       3.271960000000000     18.973910000000000      9.115860000000000
C       1.076940000000000     18.609490000000001      7.920530000000000
H       2.114030000000000     20.510030000000000      8.166650000000001
H       2.906210000000000     19.355490000000000      7.020430000000000
H       1.319770000000000     17.550149999999999      7.685110000000000
H       0.554830000000000     18.644870000000001      8.900610000000000
C       0.132210000000000     19.151000000000000      6.851320000000000
H       4.223010000000000     19.544969999999999      9.118119999999999
H      -0.140330000000000     20.202590000000001      7.084760000000000
H       0.611280000000000     19.111910000000002      5.849990000000000
H      -0.796610000000000     18.542780000000000      6.827920000000000
C       1.614850000000000     14.401529999999999      8.079390000000000
C       1.705540000000000     13.064900000000000      7.731940000000000
C       2.985170000000000     12.867520000000001      7.234100000000000
C       3.627820000000000     14.082470000000001      7.322240000000000
N       2.785650000000000     14.997520000000000      7.828950000000000
C       5.049240000000000     14.430429999999999      6.919160000000000
N       5.437910000000000     15.755050000000001      7.461860000000000
C       6.583220000000000     16.473040000000001      6.870980000000000
H       0.927140000000000     12.323570000000000      7.830720000000000
H       0.746160000000000     14.896770000000000      8.499060000000000
H       3.402450000000000     11.939209999999999      6.865340000000000
H       5.740080000000000     13.671740000000000      7.341830000000000
H       5.098150000000000     14.401980000000000      5.812060000000000
C       6.219550000000000     17.029540000000001      5.484270000000000
C       6.942780000000000     17.657290000000000      7.791650000000000
C       7.809530000000000     15.542270000000000      6.775830000000000
H       5.358550000000000     17.728020000000001      5.563230000000000
H       7.082310000000000     17.584710000000001      5.055260000000000
H       5.953640000000000     16.218699999999998      4.778100000000000
H       7.220160000000000     17.308260000000001      8.808420000000000
H       7.806960000000000     18.226479999999999      7.383390000000000
H       6.084860000000000     18.355319999999999      7.889540000000000
H       8.064450000000001     15.138949999999999      7.780290000000000
H       7.611020000000000     14.688250000000000      6.095770000000000
H       8.692480000000000     16.091259999999998      6.384980000000000
