125

Mg     -0.390130000000000      0.320190000000000      0.776530000000000
C      -0.746160000000000      0.241520000000000     -2.490830000000000
C       1.073700000000000      1.677850000000000     -1.896570000000000
O      -0.079920000000000      0.979380000000000     -1.481530000000000
C       0.148440000000000     -0.662600000000000     -3.341800000000000
C       0.746430000000000      2.832790000000000     -2.829560000000000
H      -1.447960000000000     -0.431380000000000     -1.960310000000000
H      -1.369120000000000      0.908100000000000     -3.120810000000000
H       1.530790000000000      2.106830000000000     -0.984510000000000
H       1.850840000000000      1.003870000000000     -2.307440000000000
H       1.670190000000000      3.417310000000000     -3.019500000000000
H      -0.013760000000000      3.493940000000000     -2.364420000000000
H       0.358960000000000      2.447200000000000     -3.792670000000000
H       0.775490000000000     -1.306080000000000     -2.701050000000000
H       0.794350000000000     -0.059290000000000     -4.010820000000000
H      -0.485080000000000     -1.320740000000000     -3.969600000000000
H      -1.701320000000000      2.592020000000000      1.236200000000000
C      -0.034910000000000      2.694770000000000      2.659100000000000
C      -1.152860000000000      1.927030000000000      1.933140000000000
C       1.081170000000000      3.250990000000000      1.752520000000000
H      -0.496540000000000      3.532950000000000      3.221100000000000
H       0.446580000000000      2.006060000000000      3.385970000000000
H       1.818930000000000      3.783850000000000      2.394190000000000
H       1.616380000000000      2.414300000000000      1.260160000000000
C       0.582730000000000      4.237230000000000      0.696320000000000
H      -1.861430000000000      1.498840000000000      2.667590000000000
H      -0.120420000000000      3.739590000000000      0.001340000000000
H       0.075620000000000      5.099990000000000      1.175520000000000
H       1.443390000000000      4.616200000000000      0.102330000000000
C       3.230630000000000     -0.598310000000000     -0.371930000000000
C       2.948430000000000     -0.239100000000000      0.932300000000000
C       1.810220000000000     -0.932490000000000      1.295670000000000
C       1.444130000000000     -1.640050000000000      0.231760000000000
N       2.361610000000000     -1.432940000000000     -0.810940000000000
C       0.207860000000000     -2.496100000000000      0.116910000000000
N      -0.972540000000000     -1.650630000000000      0.334590000000000
C      -2.308460000000000     -2.285370000000000      0.443560000000000
H       3.490390000000000      0.478330000000000      1.535790000000000
H       4.050860000000000     -0.231140000000000     -0.970050000000000
H       1.286400000000000     -0.870890000000000      2.240390000000000
H       0.267520000000000     -3.309120000000000      0.864310000000000
H       0.172020000000000     -2.928790000000000     -0.905040000000000
C      -2.402680000000000     -3.139940000000000      1.722690000000000
C      -3.375590000000000     -1.179930000000000      0.508200000000000
C      -2.600510000000000     -3.174190000000000     -0.789130000000000
H      -2.227700000000000     -2.513800000000000      2.622180000000000
H      -3.408720000000000     -3.607260000000000      1.805450000000000
H      -1.663770000000000     -3.966190000000000      1.714790000000000
H      -3.364310000000000     -0.564200000000000     -0.415840000000000
H      -4.392410000000000     -1.620710000000000      0.615990000000000
H      -3.191650000000000     -0.513670000000000      1.376870000000000
H      -2.542340000000000     -2.581060000000000     -1.726550000000000
H      -1.881810000000000     -4.016840000000000     -0.861760000000000
H      -3.620140000000000     -3.614650000000000     -0.725720000000000
Na      6.670400000000000     -1.923650000000000      8.513510000000000
C       9.491180000000000     -2.338240000000000      6.887540000000000
C       9.122299999999999     -4.100240000000000      8.324159999999999
O       9.169440000000000     -2.693840000000000      8.215109999999999
C       9.550649999999999     -0.821330000000000      6.778080000000000
C       8.759589999999999     -4.478350000000000      9.752990000000000
H      10.490790000000001     -2.738340000000000      6.601800000000000
H       8.709310000000000     -2.699790000000000      6.181230000000000
H       8.341089999999999     -4.522720000000000      7.653140000000000
H      10.116560000000000     -4.547360000000000      8.095770000000000
H       7.765690000000000     -4.059710000000000     10.018730000000000
H       8.720739999999999     -5.584090000000000      9.850120000000000
H       9.521500000000000     -4.082450000000000     10.457850000000001
H      10.328040000000000     -0.418860000000000      7.461860000000000
H       9.803260000000000     -0.529810000000000      5.736520000000000
H       8.567230000000000     -0.379910000000000      7.045960000000000
Na     11.326790000000001     -2.035060000000000      9.585120000000000
Mg      4.428780000000000     -6.758090000000000      4.502020000000000
C       1.251580000000000     -7.301540000000000      3.576010000000000
C       1.337740000000000     -5.557220000000000      5.206960000000000
O       2.011640000000000     -6.615610000000000      4.556450000000000
C       0.593050000000000     -6.406720000000000      2.522380000000000
C       0.186080000000000     -6.037190000000000      6.081620000000000
H       1.967220000000000     -7.947650000000000      3.029260000000000
H       0.516930000000000     -7.984800000000000      4.049190000000000
H       2.076070000000000     -5.070470000000000      5.873630000000000
H       1.029360000000000     -4.761100000000000      4.500550000000000
H      -0.223660000000000     -5.173570000000000      6.645770000000000
H       0.545230000000000     -6.801340000000000      6.801750000000000
H      -0.622290000000000     -6.468220000000000      5.458510000000000
H       1.341340000000000     -5.736530000000000      2.059860000000000
H      -0.224260000000000     -5.805470000000000      2.968790000000000
H       0.153530000000000     -7.039950000000000      1.725340000000000
H       4.424730000000000     -8.250450000000001      6.743010000000000
C       5.645270000000000     -6.511940000000000      7.274760000000000
C       5.218630000000000     -7.617810000000000      6.296830000000000
C       4.542490000000000     -5.494260000000000      7.625980000000000
H       6.020200000000000     -6.982700000000000      8.207979999999999
H       6.478220000000000     -5.944360000000000      6.808810000000000
H       4.974790000000000     -4.742570000000000      8.324090000000000
H       4.223440000000000     -4.955170000000000      6.710530000000000
C       3.321470000000000     -6.114660000000000      8.305289999999999
H       6.089090000000000     -8.255800000000001      6.045530000000000
H       2.816930000000000     -6.829260000000000      7.626010000000000
H       3.616950000000000     -6.638350000000000      9.238099999999999
H       2.593720000000000     -5.314470000000000      8.564159999999999
C       3.266810000000000     -3.132310000000000      3.511220000000000
C       4.469970000000000     -3.356070000000000      4.153580000000000
C       5.069020000000000     -4.419940000000000      3.509630000000000
C       4.232470000000000     -4.801340000000000      2.552020000000000
N       3.100340000000000     -3.967810000000000      2.551190000000000
C       4.433420000000000     -5.978350000000000      1.632410000000000
N       4.508990000000000     -7.202300000000000      2.443060000000000
C       4.874630000000000     -8.482360000000000      1.788940000000000
H       4.852730000000000     -2.824950000000000      5.015970000000000
H       2.543810000000000     -2.374260000000000      3.772030000000000
H       6.012370000000000     -4.885790000000000      3.759900000000000
H       5.364570000000000     -5.815990000000000      1.056070000000000
H       3.570700000000000     -6.041350000000000      0.936500000000000
C       6.330790000000000     -8.447020000000000      1.283680000000000
C       4.738240000000000     -9.616830000000000      2.817830000000000
C       3.928960000000000     -8.784450000000000      0.602780000000000
H       7.030460000000000     -8.249450000000000      2.122360000000000
H       6.603660000000000     -9.420230000000000      0.818400000000000
H       6.473660000000000     -7.667360000000000      0.508160000000000
H       3.694140000000000     -9.691240000000001      3.187910000000000
H       5.012270000000000    -10.594720000000001      2.361490000000000
H       5.407870000000000     -9.438969999999999      3.685190000000000
H       2.871930000000000     -8.821809999999999      0.941730000000000
H       4.016240000000000     -8.015459999999999     -0.192790000000000
H       4.176980000000000     -9.765680000000000      0.141140000000000
