140

Mg      0.671150000000000     -0.097950000000000      0.166350000000000
H       2.329420000000000      2.239390000000000     -0.718350000000000
C       1.311230000000000      1.764560000000000     -2.601010000000000
C       2.018310000000000      1.362770000000000     -1.322410000000000
C       2.277720000000000      2.542290000000000     -3.485340000000000
H       0.959760000000000      0.849660000000000     -3.126290000000000
H       0.426610000000000      2.388550000000000     -2.345380000000000
H       2.626610000000000      3.445280000000000     -2.938420000000000
H       3.155200000000000      1.900390000000000     -3.719190000000000
C       1.613600000000000      2.970950000000000     -4.784460000000000
H       2.865330000000000      0.671170000000000     -1.513660000000000
H       1.273130000000000      2.080040000000000     -5.353780000000000
H       0.743520000000000      3.627730000000000     -4.571830000000000
H       2.348390000000000      3.532130000000000     -5.397800000000000
C       1.501570000000000     -0.014160000000000      3.226970000000000
C       0.871570000000000     -0.508020000000000      4.358310000000000
C      -0.306270000000000     -1.102510000000000      3.933950000000000
C      -0.351590000000000     -0.940270000000000      2.570040000000000
N       0.743760000000000     -0.286410000000000      2.154720000000000
C      -1.430340000000000     -1.417680000000000      1.617650000000000
N      -1.198070000000000     -0.871890000000000      0.265370000000000
C      -2.134410000000000     -1.157800000000000     -0.836610000000000
H       1.228810000000000     -0.446780000000000      5.376350000000000
H       2.452570000000000      0.504810000000000      3.197080000000000
H      -1.051110000000000     -1.590190000000000      4.546180000000000
H      -2.407620000000000     -1.065430000000000      1.994700000000000
H      -1.394350000000000     -2.526420000000000      1.603280000000000
C      -3.498770000000000     -0.509490000000000     -0.534220000000000
C      -1.582180000000000     -0.544940000000000     -2.136800000000000
C      -2.296640000000000     -2.675840000000000     -1.034160000000000
H      -3.381510000000000      0.589640000000000     -0.409200000000000
H      -4.216830000000000     -0.697030000000000     -1.360010000000000
H      -3.943790000000000     -0.920040000000000      0.394040000000000
H      -0.602650000000000     -0.996870000000000     -2.401580000000000
H      -2.284690000000000     -0.723180000000000     -2.981910000000000
H      -1.447280000000000      0.552620000000000     -2.029500000000000
H      -1.310970000000000     -3.145070000000000     -1.242670000000000
H      -2.733720000000000     -3.151000000000000     -0.132240000000000
H      -2.977410000000000     -2.886410000000000     -1.886680000000000
Na     -0.536020000000000     -7.957690000000000      8.630280000000001
C       1.477170000000000    -10.208449999999999      9.663760000000000
C       1.154610000000000    -10.651719999999999      7.382390000000000
O       0.569350000000000    -10.175079999999999      8.579300000000000
C       2.265030000000000     -8.905279999999999      9.753010000000000
C       0.954630000000000    -12.157590000000001      7.232080000000000
H       0.887330000000000    -10.323140000000000     10.597849999999999
H       2.163550000000000    -11.083970000000001      9.623390000000001
H       0.649130000000000    -10.144330000000000      6.532990000000000
H       2.233550000000000    -10.392790000000000      7.300340000000000
H      -0.126550000000000    -12.407679999999999      7.223960000000000
H       1.401560000000000    -12.493840000000001      6.273610000000000
H       1.446700000000000    -12.703239999999999      8.063400000000000
H       1.572400000000000     -8.045560000000000      9.869009999999999
H       2.941430000000000     -8.940740000000000     10.632160000000001
H       2.877620000000000     -8.755520000000001      8.840820000000001
C       1.671620000000000     -6.711480000000000      6.421310000000000
C      -0.119830000000000     -5.189710000000000      6.815680000000000
O       0.394400000000000     -6.497560000000000      6.994870000000000
C       2.775190000000000     -5.849380000000000      7.035570000000000
C      -0.368020000000000     -4.826950000000000      5.352320000000000
H       1.936800000000000     -7.768460000000000      6.633230000000000
H       1.646130000000000     -6.628420000000000      5.315430000000000
H      -1.108310000000000     -5.168950000000000      7.322940000000000
H       0.494730000000000     -4.426040000000000      7.335770000000000
H      -1.004100000000000     -5.599750000000000      4.873460000000000
H      -0.891600000000000     -3.851320000000000      5.304000000000000
H       0.586730000000000     -4.726830000000000      4.797510000000000
H       2.791950000000000     -5.978140000000000      8.138350000000001
H       3.756070000000000     -6.163760000000000      6.621390000000000
H       2.632140000000000     -4.778890000000000      6.785050000000000
Na     -1.498180000000000    -11.352959999999999      8.827690000000000
C      -3.304540000000000     -8.672350000000000      9.610950000000001
C      -3.338640000000000     -9.119330000000000      7.312950000000000
O      -2.601540000000000     -9.219910000000000      8.514650000000000
C      -2.637140000000000     -9.136290000000001     10.899929999999999
C      -3.253190000000000     -7.720300000000000      6.706020000000000
H      -3.256130000000000     -7.562820000000000      9.580109999999999
H      -4.363420000000000     -9.014150000000001      9.644800000000000
H      -2.884100000000000     -9.829620000000000      6.589250000000000
H      -4.395350000000000     -9.443630000000001      7.438090000000000
H      -2.192760000000000     -7.442540000000000      6.535100000000000
H      -3.786110000000000     -7.707740000000000      5.732130000000000
H      -3.726600000000000     -6.970870000000000      7.372640000000000
H      -1.571220000000000     -8.823000000000000     10.915889999999999
H      -3.154790000000000     -8.691220000000000     11.775600000000001
H      -2.687320000000000    -10.242220000000000     10.980570000000000
C      -3.859520000000000    -13.340430000000000     10.034860000000000
C      -1.924510000000000    -13.602390000000000     11.279510000000000
O      -2.555130000000000    -12.864240000000001     10.261430000000001
C      -4.473500000000000    -12.522010000000000      8.906779999999999
C      -0.534320000000000    -13.019100000000000     11.494650000000000
H      -3.844830000000000    -14.407670000000000      9.717870000000000
H      -4.490300000000000    -13.205740000000000     10.942030000000001
H      -2.485790000000000    -13.517120000000000     12.237180000000000
H      -1.810380000000000    -14.669050000000000     10.981710000000000
H      -0.615080000000000    -11.952109999999999     11.793799999999999
H      -0.003670000000000    -13.577750000000000     12.293300000000000
H       0.055940000000000    -13.083990000000000     10.554880000000001
H      -3.867500000000000    -12.631629999999999      7.981470000000000
H      -5.509230000000000    -12.864290000000000      8.703580000000001
H      -4.499810000000000    -11.449579999999999      9.190610000000000
Mg     -2.456930000000000     -9.867789999999999      2.660870000000000
H      -5.268700000000000    -11.205069999999999      3.178350000000000
C      -5.503370000000000    -10.683430000000000      1.062920000000000
C      -4.960600000000000    -10.420410000000000      2.458020000000000
C      -5.045420000000000    -12.030889999999999      0.487610000000000
H      -6.611760000000000    -10.674690000000000      1.121280000000000
H      -5.182500000000000     -9.864850000000001      0.384030000000000
H      -5.369950000000000    -12.860300000000001      1.153030000000000
H      -5.540520000000000    -12.159640000000000     -0.497980000000000
C      -3.533320000000000    -12.116720000000001      0.269200000000000
H      -5.287280000000000     -9.421430000000001      2.819330000000000
H      -2.990050000000000    -12.082710000000001      1.235050000000000
H      -3.291610000000000    -13.078680000000000     -0.232410000000000
H      -3.183710000000000    -11.286090000000000     -0.380560000000000
C      -0.708560000000000    -12.391780000000001      3.481620000000000
C       0.638520000000000    -12.671049999999999      3.317830000000000
C       1.197850000000000    -11.588509999999999      2.656160000000000
C       0.165930000000000    -10.705909999999999      2.426170000000000
N      -0.972520000000000    -11.192150000000000      2.940400000000000
C       0.228920000000000     -9.364649999999999      1.720170000000000
N      -1.141460000000000     -8.870850000000001      1.467440000000000
C      -1.372580000000000     -7.606710000000000      0.745500000000000
H       1.157580000000000    -13.561109999999999      3.646320000000000
H      -1.441130000000000    -13.023999999999999      3.966870000000000
H       2.232080000000000    -11.465909999999999      2.364530000000000
H       0.794680000000000     -8.663520000000000      2.368120000000000
H       0.752630000000000     -9.503209999999999      0.755710000000000
C      -0.869690000000000     -7.737760000000000     -0.705780000000000
C      -2.886520000000000     -7.331450000000000      0.711050000000000
C      -0.668050000000000     -6.433600000000000      1.449160000000000
H      -1.384610000000000     -8.582210000000000     -1.215070000000000
H      -1.070460000000000     -6.807330000000000     -1.278560000000000
H       0.222770000000000     -7.923120000000000     -0.741260000000000
H      -3.291880000000000     -7.224000000000000      1.739850000000000
H      -3.101600000000000     -6.393400000000000      0.151890000000000
H      -3.424370000000000     -8.163150000000000      0.208580000000000
H      -1.031160000000000     -6.338280000000000      2.493860000000000
H       0.431400000000000     -6.580690000000000      1.465090000000000
H      -0.871900000000000     -5.480410000000000      0.914470000000000
