185

Mg     -0.141210000000000     -0.230290000000000     -0.379740000000000
C      -2.417310000000000      2.044590000000000      1.013340000000000
C      -1.642340000000000      0.392590000000000      2.551590000000000
O      -1.451410000000000      1.054170000000000      1.314930000000000
C      -2.381720000000000      3.242490000000000      1.957340000000000
C      -2.933520000000000     -0.418880000000000      2.617770000000000
H      -2.171610000000000      2.420010000000000     -0.003620000000000
H      -3.439100000000000      1.626200000000000      0.938740000000000
H      -0.812630000000000     -0.335540000000000      2.649090000000000
H      -1.527810000000000      1.079790000000000      3.414150000000000
H      -3.006730000000000     -1.093930000000000      1.740050000000000
H      -2.929810000000000     -1.032420000000000      3.542800000000000
H      -3.817200000000000      0.248210000000000      2.651740000000000
H      -1.359580000000000      3.668240000000000      2.009430000000000
H      -3.074390000000000      4.021850000000000      1.575830000000000
H      -2.716570000000000      2.950580000000000      2.972090000000000
H      -2.132490000000000      0.770130000000000     -2.348710000000000
C      -3.373300000000000     -0.745070000000000     -1.358530000000000
C      -2.062960000000000     -0.258520000000000     -1.938590000000000
C      -4.417280000000000     -0.818350000000000     -2.459820000000000
H      -3.228380000000000     -1.747210000000000     -0.904870000000000
H      -3.703740000000000     -0.046480000000000     -0.565380000000000
H      -4.547440000000000      0.191300000000000     -2.906970000000000
H      -4.067670000000000     -1.522230000000000     -3.246250000000000
C      -5.749500000000000     -1.299870000000000     -1.908300000000000
H      -1.642140000000000     -0.973300000000000     -2.675780000000000
H      -5.637040000000000     -2.313030000000000     -1.466510000000000
H      -6.116900000000000     -0.598300000000000     -1.129030000000000
H      -6.487650000000000     -1.343890000000000     -2.734380000000000
C       4.652100000000000      0.771930000000000     -0.623450000000000
C       4.865450000000000     -0.558520000000000     -0.877030000000000
C       3.948740000000000     -1.285680000000000     -0.126280000000000
C       3.184410000000000     -0.417790000000000      0.552570000000000
N       3.598320000000000      0.897250000000000      0.291660000000000
C       2.068580000000000     -0.717250000000000      1.535940000000000
N       0.847370000000000     -1.324510000000000      0.980830000000000
C       0.681830000000000     -2.755740000000000      0.683740000000000
H       5.623190000000000     -0.950100000000000     -1.543980000000000
H       5.195830000000000      1.604580000000000     -1.047340000000000
H       3.895170000000000     -2.358100000000000     -0.100900000000000
H       1.749340000000000      0.268750000000000      1.940270000000000
H       2.449030000000000     -1.289760000000000      2.399890000000000
C       1.549100000000000     -3.616640000000000      1.604330000000000
C      -0.797580000000000     -3.104340000000000      0.938030000000000
C       0.972930000000000     -3.032720000000000     -0.805000000000000
H       1.297940000000000     -3.383790000000000      2.659990000000000
H       1.364610000000000     -4.693850000000000      1.420260000000000
H       2.622830000000000     -3.412130000000000      1.439920000000000
H      -1.457020000000000     -2.485640000000000      0.296550000000000
H      -1.003810000000000     -4.172390000000000      0.709760000000000
H      -1.076920000000000     -2.907090000000000      1.995020000000000
H       0.266190000000000     -2.475900000000000     -1.459700000000000
H       1.987910000000000     -2.731110000000000     -1.098930000000000
H       0.857870000000000     -4.115420000000000     -1.025970000000000
C       1.486880000000000      1.958370000000000     -1.970990000000000
C       1.047830000000000      2.811300000000000      0.185340000000000
O       0.635210000000000      1.932150000000000     -0.842250000000000
C       1.605970000000000      0.554060000000000     -2.567500000000000
C       0.683400000000000      4.244810000000000     -0.139870000000000
H       1.037470000000000      2.625520000000000     -2.733720000000000
H       2.514480000000000      2.312460000000000     -1.739120000000000
H       0.533290000000000      2.511530000000000      1.119930000000000
H       2.122550000000000      2.740400000000000      0.420220000000000
H      -0.406450000000000      4.322160000000000     -0.330320000000000
H       0.959100000000000      4.891290000000000      0.718690000000000
H       1.245820000000000      4.572730000000000     -1.037330000000000
H       2.057660000000000     -0.150350000000000     -1.845440000000000
H       0.611400000000000      0.156530000000000     -2.853090000000000
H       2.249150000000000      0.581630000000000     -3.471020000000000
Na     -6.676000000000000     -7.225920000000000     14.065160000000001
C      -7.440960000000000     -9.702719999999999     15.934690000000000
C      -8.645080000000000     -7.884070000000000     16.796910000000000
O      -7.450840000000000     -8.307600000000001     16.167420000000000
C      -8.048880000000000    -10.029769999999999     14.574550000000000
C      -8.511260000000000     -7.925340000000000     18.317070000000001
H      -6.382750000000000    -10.039700000000000     15.933920000000001
H      -7.946840000000000    -10.277600000000000     16.742850000000001
H      -8.834800000000000     -6.833660000000000     16.489170000000001
H      -9.533709999999999     -8.467940000000000     16.468840000000000
H      -7.677670000000000     -7.273890000000000     18.651890000000002
H      -9.451700000000001     -7.559490000000000     18.779470000000000
H      -8.323650000000001     -8.961600000000001     18.666119999999999
H      -7.489920000000000     -9.508300000000000     13.769670000000000
H      -7.993830000000000    -11.123910000000000     14.397539999999999
H      -9.112399999999999     -9.717700000000001     14.536640000000000
C      -9.856940000000000     -6.758530000000000     13.053570000000001
C      -8.313409999999999     -5.615390000000000     11.640850000000000
O      -8.524020000000000     -6.323650000000000     12.850090000000000
C     -10.344490000000000     -7.764050000000000     12.009700000000000
C      -9.088039999999999     -4.300120000000000     11.559880000000000
H      -9.869820000000001     -7.282870000000000     14.032100000000000
H     -10.556550000000000     -5.905200000000000     13.165990000000001
H      -7.233650000000000     -5.353890000000000     11.613329999999999
H      -8.485250000000001     -6.254250000000000     10.750100000000000
H      -8.875249999999999     -3.677670000000000     12.454340000000000
H      -8.774030000000000     -3.745760000000000     10.650800000000000
H     -10.178559999999999     -4.484520000000000     11.482390000000001
H      -9.639659999999999     -8.619420000000000     11.944030000000000
H     -11.344239999999999     -8.143500000000000     12.308550000000000
H     -10.450139999999999     -7.287380000000000     11.014370000000000
Na     -5.659000000000000     -7.371630000000000     17.457799999999999
C      -3.905040000000000     -6.299390000000000     14.832509999999999
C      -5.337950000000000     -4.652790000000000     15.676439999999999
O      -5.119740000000000     -6.038340000000000     15.504820000000000
C      -3.558820000000000     -7.772730000000000     15.006750000000000
C      -5.869080000000000     -3.998140000000000     14.403090000000001
H      -4.018740000000000     -6.099690000000000     13.745369999999999
H      -3.058440000000000     -5.708820000000000     15.249350000000000
H      -6.112850000000000     -4.538030000000000     16.464490000000001
H      -4.434300000000000     -4.127160000000000     16.056979999999999
H      -6.802480000000000     -4.500880000000000     14.076470000000000
H      -6.090100000000000     -2.928660000000000     14.602200000000000
H      -5.119140000000000     -4.054020000000000     13.589210000000000
H      -4.376540000000000     -8.409929999999999     14.606900000000000
H      -2.620890000000000     -8.007960000000001     14.461230000000000
H      -3.414660000000000     -8.007090000000000     16.082170000000001
C      -2.973420000000000     -7.133690000000000     19.387950000000000
C      -3.631200000000000     -9.349950000000000     19.265930000000001
O      -3.845030000000000     -8.050280000000001     18.771590000000000
C      -3.274370000000000     -5.747190000000000     18.834750000000000
C      -4.580900000000000    -10.294250000000000     18.541250000000002
H      -3.135800000000000     -7.107850000000000     20.489200000000000
H      -1.913820000000000     -7.377800000000000     19.149950000000000
H      -2.589510000000000     -9.685510000000001     19.061679999999999
H      -3.856500000000000     -9.400790000000001     20.355060000000002
H      -4.380350000000000    -10.265860000000000     17.448810000000002
H      -4.440750000000000    -11.332830000000000     18.906300000000002
H      -5.634160000000000     -9.987159999999999     18.720430000000000
H      -4.328010000000000     -5.469090000000000     19.053540000000002
H      -2.599160000000000     -4.995880000000000     19.293910000000000
H      -3.124430000000000     -5.739420000000000     17.735240000000001
Mg     -0.477750000000000     -3.140020000000000      9.148890000000000
C      -3.328250000000000     -1.962630000000000     10.094580000000001
C      -3.515490000000000     -4.231770000000000      9.393020000000000
O      -2.952440000000000     -2.956430000000000      9.158340000000001
C      -2.921970000000000     -2.273340000000000     11.535900000000000
C      -5.004920000000000     -4.269740000000000      9.078880000000000
H      -2.778640000000000     -1.045660000000000      9.804750000000000
H      -4.401710000000000     -1.700280000000000     10.010270000000000
H      -3.008470000000000     -4.934690000000000      8.696970000000000
H      -3.292800000000000     -4.621620000000000     10.406829999999999
H      -5.177940000000000     -3.896230000000000      8.047570000000000
H      -5.369760000000000     -5.315000000000000      9.154299999999999
H      -5.571570000000000     -3.649090000000000      9.801570000000000
H      -1.858160000000000     -2.577220000000000     11.580439999999999
H      -3.065020000000000     -1.367030000000000     12.160570000000000
H      -3.550810000000000     -3.079560000000000     11.959470000000000
H       0.729460000000000     -4.282590000000000     11.196990000000000
C       0.674600000000000     -5.782630000000000      9.620839999999999
C       0.018140000000000     -4.700520000000000     10.455470000000000
C       1.830470000000000     -5.196850000000000      8.802970000000000
H       1.036830000000000     -6.574170000000000     10.308380000000000
H      -0.075990000000000     -6.215820000000000      8.922940000000001
H       1.431050000000000     -4.471580000000000      8.061740000000000
H       2.541160000000000     -4.661730000000000      9.468209999999999
C       2.590060000000000     -6.296550000000000      8.072329999999999
H      -0.883370000000000     -5.087020000000000     10.973229999999999
H       3.032290000000000     -6.996480000000000      8.813250000000000
H       1.912620000000000     -6.858340000000000      7.395070000000000
H       3.410480000000000     -5.849110000000000      7.472980000000000
C       1.040700000000000     -3.166120000000000      5.549020000000000
C      -0.213520000000000     -3.651140000000000      5.839580000000000
C      -0.874570000000000     -2.678680000000000      6.568810000000000
C      -0.044840000000000     -1.641680000000000      6.728380000000000
N       1.183820000000000     -1.874640000000000      6.081550000000000
C      -0.347800000000000     -0.373010000000000      7.481910000000000
N      -0.452310000000000     -0.614670000000000      8.932160000000000
C       0.719960000000000     -0.256330000000000      9.770410000000000
H      -0.595890000000000     -4.623770000000000      5.555800000000000
H       1.809630000000000     -3.691050000000000      5.001980000000000
H      -1.881260000000000     -2.754260000000000      6.947400000000000
H      -1.312330000000000      0.035880000000000      7.113100000000000
H       0.431590000000000      0.370260000000000      7.245400000000000
C       0.972880000000000      1.265350000000000      9.738049999999999
C       0.398270000000000     -0.646650000000000     11.226070000000000
C       1.988200000000000     -1.024520000000000      9.342120000000000
H       0.050120000000000      1.811410000000000     10.028860000000000
H       1.782920000000000      1.538600000000000     10.448110000000000
H       1.293750000000000      1.620550000000000      8.740570000000000
H       0.249180000000000     -1.741640000000000     11.315009999999999
H       1.232320000000000     -0.367900000000000     11.907970000000001
H      -0.523470000000000     -0.134870000000000     11.577790000000000
H       1.832800000000000     -2.120780000000000      9.430759999999999
H       2.271280000000000     -0.790650000000000      8.297779999999999
H       2.846970000000000     -0.747970000000000      9.992260000000000
