140

Mg      0.243730000000000     -0.721170000000000      0.214710000000000
H      -1.527650000000000     -2.614050000000000      1.724830000000000
C      -1.842060000000000     -0.785410000000000      2.892720000000000
C      -0.959390000000000     -1.750980000000000      2.127840000000000
C      -2.421450000000000     -1.493960000000000      4.110410000000000
H      -1.235520000000000      0.091300000000000      3.209010000000000
H      -2.656250000000000     -0.429830000000000      2.223300000000000
H      -3.015190000000000     -2.370200000000000      3.772010000000000
H      -1.589070000000000     -1.848040000000000      4.757670000000000
C      -3.318510000000000     -0.565910000000000      4.914100000000000
H      -0.081850000000000     -2.076290000000000      2.724860000000000
H      -2.739870000000000      0.311250000000000      5.274010000000000
H      -4.167110000000000     -0.216450000000000      4.288430000000000
H      -3.718390000000000     -1.118720000000000      5.789020000000000
C       1.110590000000000     -2.750540000000000     -2.064270000000000
C       1.597690000000000     -2.534150000000000     -3.343640000000000
C       1.656130000000000     -1.160940000000000     -3.524020000000000
C       1.193670000000000     -0.598630000000000     -2.357900000000000
N       0.872250000000000     -1.565150000000000     -1.484630000000000
C       1.060590000000000      0.876070000000000     -2.031710000000000
N       0.345670000000000      1.055810000000000     -0.752160000000000
C       0.053360000000000      2.403810000000000     -0.232040000000000
H       1.883240000000000     -3.288430000000000     -4.062880000000000
H       0.948600000000000     -3.713340000000000     -1.593660000000000
H       1.989700000000000     -0.629500000000000     -4.404900000000000
H       0.490340000000000      1.361750000000000     -2.844310000000000
H       2.085110000000000      1.296410000000000     -1.969180000000000
C      -0.934410000000000      3.116580000000000     -1.175000000000000
C      -0.603000000000000      2.275850000000000      1.154820000000000
C       1.346270000000000      3.227100000000000     -0.093290000000000
H      -1.874880000000000      2.528750000000000     -1.259960000000000
H      -1.182930000000000      4.129410000000000     -0.794060000000000
H      -0.506660000000000      3.238230000000000     -2.190190000000000
H       0.084360000000000      1.779700000000000      1.872670000000000
H      -0.858960000000000      3.280770000000000      1.559940000000000
H      -1.539820000000000      1.681850000000000      1.094530000000000
H       2.063040000000000      2.708380000000000      0.579270000000000
H       1.829110000000000      3.379630000000000     -1.080080000000000
H       1.125290000000000      4.230510000000000      0.329760000000000
Na     -0.045080000000000     -6.299660000000000      4.542930000000000
C       1.940040000000000     -8.567019999999999      3.491270000000000
C       0.557320000000000     -9.622550000000000      5.065830000000000
O       1.218500000000000     -8.426170000000001      4.699930000000000
C       1.062080000000000     -8.225500000000000      2.291460000000000
C       1.447690000000000    -10.498920000000000      5.943020000000000
H       2.788870000000000     -7.851170000000000      3.516310000000000
H       2.392600000000000     -9.577550000000000      3.375730000000000
H      -0.346110000000000     -9.344970000000000      5.649950000000000
H       0.192750000000000    -10.197039999999999      4.185530000000000
H       1.739180000000000     -9.956519999999999      6.866280000000000
H       0.891380000000000    -11.414420000000000      6.232660000000000
H       2.364080000000000    -10.799609999999999      5.394590000000000
H       0.677270000000000     -7.188050000000000      2.380660000000000
H       1.659930000000000     -8.306340000000001      1.359940000000000
H       0.204110000000000     -8.924810000000001      2.223260000000000
C      -2.787070000000000     -7.911520000000000      3.452510000000000
C      -3.254100000000000     -5.625260000000000      3.940310000000000
O      -2.335840000000000     -6.700250000000000      4.031490000000000
C      -3.024080000000000     -7.823320000000000      1.944400000000000
C      -4.557890000000000     -5.869270000000000      4.699450000000000
H      -1.974950000000000     -8.652880000000000      3.605180000000000
H      -3.667240000000000     -8.321940000000000      3.988540000000000
H      -2.762480000000000     -4.753340000000000      4.421540000000000
H      -3.434930000000000     -5.320560000000000      2.888670000000000
H      -4.336110000000000     -6.146160000000000      5.750990000000000
H      -5.166350000000000     -4.940840000000000      4.691040000000000
H      -5.156070000000000     -6.669210000000000      4.218220000000000
H      -2.115400000000000     -7.437360000000000      1.436190000000000
H      -3.253340000000000     -8.836259999999999      1.551910000000000
H      -3.889210000000000     -7.169590000000000      1.713520000000000
Na      2.428190000000000     -7.711770000000000      6.636480000000000
C       1.499640000000000     -4.523250000000000      6.437860000000000
C       0.071140000000000     -5.775560000000000      7.806230000000000
O       0.945570000000000     -5.796900000000000      6.696150000000000
C       2.684430000000000     -4.688740000000000      5.493990000000000
C      -1.303330000000000     -5.219170000000000      7.439640000000000
H       0.749680000000000     -3.874680000000000      5.936290000000000
H       1.879460000000000     -4.034460000000000      7.363110000000000
H      -0.067170000000000     -6.828140000000000      8.134779999999999
H       0.507890000000000     -5.237990000000000      8.676720000000000
H      -1.744410000000000     -5.808590000000000      6.609690000000000
H      -1.975190000000000     -5.286960000000000      8.320910000000000
H      -1.231090000000000     -4.154640000000000      7.136470000000000
H       2.359820000000000     -5.178510000000000      4.550960000000000
H       3.116940000000000     -3.695260000000000      5.251690000000000
H       3.469380000000000     -5.312510000000000      5.970480000000000
C       4.919780000000000     -6.897750000000000      8.664450000000000
C       5.781540000000000     -7.779360000000000      6.704320000000000
O       4.617360000000000     -7.349230000000000      7.366680000000000
C       3.618880000000000     -6.475910000000000      9.334580000000001
C       5.390280000000000     -8.224589999999999      5.301530000000000
H       5.373380000000000     -7.711580000000000      9.274060000000000
H       5.591530000000000     -6.011060000000000      8.625640000000001
H       6.514580000000000     -6.946830000000000      6.609520000000000
H       6.236740000000000     -8.649100000000001      7.229500000000000
H       4.931700000000000     -7.375730000000000      4.750510000000000
H       6.285790000000000     -8.572600000000000      4.746130000000000
H       4.653810000000000     -9.055470000000000      5.356820000000000
H       2.920370000000000     -7.338710000000000      9.390210000000000
H       3.818270000000000     -6.105110000000000     10.361200000000000
H       3.138460000000000     -5.665650000000000      8.747999999999999
Mg     -3.040710000000000     -8.831659999999999      9.795760000000000
H      -1.433330000000000     -7.616860000000000     12.225009999999999
C      -3.329380000000000     -8.054410000000001     13.232880000000000
C      -2.521750000000000     -7.638470000000000     12.014340000000001
C      -2.942920000000000     -9.443149999999999     13.760510000000000
H      -3.152730000000000     -7.303760000000000     14.031200000000000
H      -4.410330000000000     -8.045170000000001     12.977240000000000
H      -1.864570000000000     -9.462610000000000     14.030340000000001
H      -3.536600000000000     -9.628810000000000     14.680389999999999
C      -3.240000000000000    -10.573499999999999     12.772800000000000
H      -2.858790000000000     -6.645460000000000     11.646129999999999
H      -2.605620000000000    -10.486890000000001     11.867699999999999
H      -3.021620000000000    -11.548930000000000     13.258870000000000
H      -4.310530000000000    -10.562780000000000     12.475809999999999
C      -1.004660000000000    -11.189370000000000      9.167040000000000
C      -1.114540000000000    -12.309830000000000      8.359590000000001
C      -2.383830000000000    -12.283110000000001      7.802210000000000
C      -3.000500000000000    -11.160930000000000      8.309030000000000
N      -2.156720000000000    -10.502570000000000      9.116180000000000
C      -4.408860000000000    -10.669449999999999      8.034240000000000
N      -4.747610000000000     -9.581030000000000      8.975479999999999
C      -6.080800000000000     -8.953220000000000      8.962000000000000
H      -0.355000000000000    -13.060990000000000      8.191450000000000
H      -0.138580000000000    -10.898450000000000      9.747590000000001
H      -2.811640000000000    -13.004460000000000      7.119310000000000
H      -4.449020000000000    -10.317560000000000      6.982520000000000
H      -5.107770000000000    -11.513840000000000      8.183220000000000
C      -7.147330000000000     -9.989979999999999      9.367010000000001
C      -6.095980000000000     -7.812600000000000      9.995400000000000
C      -6.402180000000000     -8.373419999999999      7.573550000000000
H      -6.916810000000000    -10.403779999999999     10.373559999999999
H      -8.156070000000000     -9.526020000000001      9.401000000000000
H      -7.190350000000000    -10.830650000000000      8.645550000000000
H      -5.343680000000000     -7.036520000000000      9.738360000000000
H      -7.097610000000000     -7.328740000000000     10.030320000000000
H      -5.865630000000000     -8.200440000000000     11.010220000000000
H      -5.635200000000000     -7.625550000000000      7.282260000000000
H      -6.432490000000000     -9.172510000000001      6.804650000000000
H      -7.396690000000000     -7.877110000000000      7.580830000000000
