140

Mg     -0.489220000000000      0.588840000000000      0.175040000000000
H      -1.915990000000000      1.899230000000000     -2.113930000000000
C       0.094050000000000      1.725520000000000     -2.971890000000000
C      -0.851780000000000      2.016150000000000     -1.824200000000000
C      -0.136780000000000      2.743170000000000     -4.081890000000000
H       1.142020000000000      1.786720000000000     -2.605160000000000
H      -0.092130000000000      0.693470000000000     -3.342660000000000
H      -1.191850000000000      2.674740000000000     -4.425970000000000
H       0.047580000000000      3.765100000000000     -3.683920000000000
C       0.790200000000000      2.492970000000000     -5.261130000000000
H      -0.655680000000000      3.006430000000000     -1.362450000000000
H       1.850420000000000      2.574200000000000     -4.940040000000000
H       0.608950000000000      1.481880000000000     -5.683600000000000
H       0.591120000000000      3.252830000000000     -6.044720000000000
C      -3.016650000000000      0.269280000000000      2.064840000000000
C      -3.261640000000000     -0.587730000000000      3.126170000000000
C      -2.136040000000000     -1.384740000000000      3.266910000000000
C      -1.259680000000000     -0.991460000000000      2.283460000000000
N      -1.798710000000000      0.007920000000000      1.568700000000000
C       0.125360000000000     -1.541800000000000      2.005000000000000
N       0.655960000000000     -0.981260000000000      0.745860000000000
C       1.975590000000000     -1.390990000000000      0.232300000000000
H      -4.155040000000000     -0.625980000000000      3.732900000000000
H      -3.686930000000000      1.033840000000000      1.689300000000000
H      -1.973810000000000     -2.166930000000000      3.996050000000000
H       0.051660000000000     -2.641160000000000      1.917950000000000
H       0.772560000000000     -1.261170000000000      2.860940000000000
C       1.937560000000000     -2.882030000000000     -0.151780000000000
C       2.301110000000000     -0.570670000000000     -1.029380000000000
C       3.071760000000000     -1.138750000000000      1.282720000000000
H       1.156660000000000     -3.059580000000000     -0.923670000000000
H       2.917530000000000     -3.211610000000000     -0.556320000000000
H       1.709050000000000     -3.516390000000000      0.726720000000000
H       2.354070000000000      0.513420000000000     -0.792880000000000
H       3.282870000000000     -0.879870000000000     -1.453710000000000
H       1.526440000000000     -0.724370000000000     -1.810640000000000
H       3.092810000000000     -0.064560000000000      1.567230000000000
H       2.897310000000000     -1.746210000000000      2.194180000000000
H       4.068730000000000     -1.418550000000000      0.879770000000000
Na     -1.260920000000000     -7.311860000000000      3.497120000000000
C       0.233060000000000     -6.107110000000000      6.046590000000000
C       0.956500000000000     -8.333780000000001      5.886830000000000
O      -0.115760000000000     -7.431300000000000      5.690960000000000
C       0.826830000000000     -5.362240000000000      4.854700000000000
C       0.928910000000000     -8.927210000000001      7.293110000000000
H      -0.695350000000000     -5.582580000000000      6.357240000000000
H       0.918920000000000     -6.063760000000000      6.922420000000000
H       0.840220000000000     -9.161569999999999      5.154900000000000
H       1.947590000000000     -7.873030000000000      5.678750000000000
H      -0.025540000000000     -9.465090000000000      7.470080000000000
H       1.765430000000000     -9.647930000000001      7.404450000000000
H       1.043260000000000     -8.130770000000000      8.057010000000000
H       0.103640000000000     -5.346370000000000      4.012620000000000
H       1.056530000000000     -4.316730000000000      5.147780000000000
H       1.764200000000000     -5.849510000000000      4.517420000000000
C       1.609140000000000     -7.957750000000000      1.868470000000000
C      -0.261690000000000     -8.010540000000001      0.392240000000000
O       0.199360000000000     -7.960820000000000      1.731040000000000
C       2.285540000000000     -6.731740000000000      1.254090000000000
C       0.127450000000000     -9.294400000000000     -0.340030000000000
H       1.817350000000000     -7.924100000000000      2.958430000000000
H       2.060450000000000     -8.905480000000001      1.510000000000000
H      -1.371680000000000     -7.993830000000000      0.441700000000000
H       0.022030000000000     -7.102580000000000     -0.179090000000000
H      -0.193760000000000    -10.177730000000000      0.250060000000000
H      -0.375040000000000     -9.318930000000000     -1.329510000000000
H       1.221220000000000     -9.337190000000000     -0.516120000000000
H       1.830050000000000     -5.804220000000000      1.658730000000000
H       3.365600000000000     -6.743940000000000      1.510500000000000
H       2.202510000000000     -6.740200000000000      0.148520000000000
Na     -2.014660000000000     -8.406720000000000      6.772260000000000
C      -4.134210000000000     -7.840220000000000      4.272480000000000
C      -3.144060000000000     -9.957000000000001      4.128160000000000
O      -2.995450000000000     -8.622230000000000      4.568470000000000
C      -4.064990000000000     -6.550760000000000      5.081650000000000
C      -2.885580000000000    -10.095980000000001      2.629230000000000
H      -4.141710000000000     -7.568740000000000      3.195170000000000
H      -5.081540000000000     -8.354820000000000      4.549950000000000
H      -2.380640000000000    -10.564539999999999      4.660100000000000
H      -4.129980000000000    -10.387240000000000      4.411600000000000
H      -1.873800000000000     -9.715400000000001      2.379540000000000
H      -2.944000000000000    -11.167030000000000      2.342760000000000
H      -3.643550000000000     -9.536330000000000      2.044060000000000
H      -3.131310000000000     -5.996970000000000      4.844590000000000
H      -4.935650000000000     -5.905330000000000      4.840390000000000
H      -4.080890000000000     -6.779120000000000      6.167810000000000
C      -4.546330000000000     -8.880800000000001      8.858029999999999
C      -3.329500000000000     -7.030490000000000      9.534580000000000
O      -3.498750000000000     -8.000719999999999      8.530070000000000
C      -4.657630000000000     -9.919010000000000      7.749400000000000
C      -2.206010000000000     -6.096360000000000      9.105230000000001
H      -4.333920000000000     -9.415760000000001      9.811130000000000
H      -5.514360000000000     -8.334640000000000      8.918070000000000
H      -4.254020000000000     -6.422860000000000      9.659039999999999
H      -3.036000000000000     -7.505620000000000     10.497690000000000
H      -2.470090000000000     -5.605500000000000      8.144069999999999
H      -2.042100000000000     -5.314600000000000      9.875629999999999
H      -1.264360000000000     -6.670860000000000      8.967260000000000
H      -3.705490000000000    -10.485360000000000      7.659190000000000
H      -5.481440000000000    -10.629049999999999      7.969350000000000
H      -4.866420000000000     -9.416499999999999      6.782320000000000
Mg     -0.293210000000000    -13.791050000000000      3.740400000000000
H      -2.968870000000000    -14.895110000000001      4.998400000000000
C      -2.294230000000000    -16.698350000000001      3.951770000000000
C      -2.425340000000000    -15.189370000000000      4.077810000000000
C      -1.554990000000000    -17.335139999999999      5.136830000000000
H      -3.317030000000000    -17.125560000000000      3.893620000000000
H      -1.759150000000000    -16.942720000000001      3.009510000000000
H      -2.086920000000000    -17.106739999999999      6.085990000000000
H      -1.566100000000000    -18.435260000000000      4.986140000000000
C      -0.095270000000000    -16.890979999999999      5.252890000000000
H      -2.933610000000000    -14.768179999999999      3.183670000000000
H      -0.026780000000000    -15.810790000000001      5.492990000000000
H       0.395170000000000    -17.461220000000001      6.071240000000000
H       0.452370000000000    -17.094650000000001      4.307920000000000
C       1.070650000000000    -12.954330000000001      6.486200000000000
C       2.369520000000000    -12.582750000000001      6.793300000000000
C       3.096390000000000    -12.642989999999999      5.614100000000000
C       2.216570000000000    -13.068390000000001      4.643860000000000
N       0.998000000000000    -13.237450000000001      5.176200000000000
C       2.501110000000000    -13.317390000000000      3.174980000000000
N       1.349430000000000    -14.007110000000001      2.555920000000000
C       1.380620000000000    -14.415780000000000      1.140380000000000
H       2.745830000000000    -12.296020000000000      7.765730000000000
H       0.238180000000000    -13.009350000000000      7.175930000000000
H       4.145870000000000    -12.417149999999999      5.482540000000000
H       2.688220000000000    -12.335979999999999      2.691870000000000
H       3.398100000000000    -13.960129999999999      3.097980000000000
C       2.469060000000000    -15.487539999999999      0.932970000000000
C       0.017580000000000    -15.032150000000000      0.777950000000000
C       1.641760000000000    -13.207560000000001      0.224270000000000
H       2.275470000000000    -16.362870000000001      1.591620000000000
H       2.482470000000000    -15.837770000000001     -0.121130000000000
H       3.477920000000000    -15.091530000000001      1.166340000000000
H      -0.798760000000000    -14.289780000000000      0.907530000000000
H       0.011660000000000    -15.375140000000000     -0.280790000000000
H      -0.200510000000000    -15.908230000000000      1.424690000000000
H       0.857190000000000    -12.436220000000000      0.372190000000000
H       2.632490000000000    -12.754569999999999      0.433860000000000
H       1.634910000000000    -13.520420000000000     -0.842260000000000
