155

Mg      0.787770000000000     -0.473790000000000      0.303660000000000
C      -0.544550000000000      2.497010000000000     -0.182150000000000
C       0.144020000000000      1.551290000000000     -2.270350000000000
O       0.219570000000000      1.516380000000000     -0.861730000000000
C      -2.000650000000000      2.626190000000000     -0.635070000000000
C       0.804480000000000      2.789700000000000     -2.855590000000000
H      -0.579320000000000      2.173110000000000      0.876450000000000
H      -0.026970000000000      3.477370000000000     -0.192080000000000
H       0.703480000000000      0.671020000000000     -2.640520000000000
H      -0.889050000000000      1.401650000000000     -2.641260000000000
H       0.825830000000000      2.700260000000000     -3.961370000000000
H       1.843870000000000      2.881370000000000     -2.477850000000000
H       0.231020000000000      3.695490000000000     -2.578060000000000
H      -2.498360000000000      1.642560000000000     -0.634880000000000
H      -2.060380000000000      3.074470000000000     -1.647100000000000
H      -2.548970000000000      3.281660000000000      0.070620000000000
H       3.347670000000000      0.269390000000000      0.266170000000000
C       3.382540000000000     -1.658820000000000     -0.779240000000000
C       2.893400000000000     -0.738130000000000      0.351900000000000
C       2.993710000000000     -1.218170000000000     -2.204540000000000
H       4.487610000000000     -1.735690000000000     -0.712630000000000
H       2.948870000000000     -2.669170000000000     -0.619190000000000
H       3.407580000000000     -1.960090000000000     -2.924410000000000
H       1.890650000000000     -1.232840000000000     -2.313870000000000
C       3.532290000000000      0.158980000000000     -2.591900000000000
H       3.149000000000000     -1.174180000000000      1.336480000000000
H       3.110080000000000      0.940840000000000     -1.931990000000000
H       4.639510000000000      0.179320000000000     -2.522550000000000
H       3.237490000000000      0.395480000000000     -3.638000000000000
C      -1.881750000000000     -1.291590000000000     -2.471010000000000
C      -0.923730000000000     -2.193620000000000     -2.068460000000000
C      -0.892300000000000     -2.173570000000000     -0.685180000000000
C      -1.781600000000000     -1.269460000000000     -0.260530000000000
N      -2.468460000000000     -0.693270000000000     -1.347680000000000
C      -2.010250000000000     -0.863890000000000      1.171250000000000
N      -0.759580000000000     -0.324670000000000      1.719310000000000
C      -0.690070000000000      0.000550000000000      3.164490000000000
H      -0.299760000000000     -2.784210000000000     -2.725680000000000
H      -2.141290000000000     -1.056290000000000     -3.493380000000000
H      -0.221590000000000     -2.748630000000000     -0.057900000000000
H      -2.353020000000000     -1.745630000000000      1.741960000000000
H      -2.792820000000000     -0.076480000000000      1.189880000000000
C      -0.788770000000000     -1.279750000000000      4.017290000000000
C       0.657320000000000      0.683080000000000      3.452010000000000
C      -1.825740000000000      0.972360000000000      3.566510000000000
H       0.036230000000000     -1.978280000000000      3.765900000000000
H      -0.728120000000000     -1.032420000000000      5.100000000000000
H      -1.755450000000000     -1.799740000000000      3.861180000000000
H       0.749450000000000      1.631940000000000      2.882670000000000
H       0.754410000000000      0.920140000000000      4.535600000000000
H       1.497930000000000      0.017370000000000      3.164740000000000
H      -1.776540000000000      1.906380000000000      2.967160000000000
H      -2.825370000000000      0.513180000000000      3.418470000000000
H      -1.747190000000000      1.249750000000000      4.640760000000000
Na     -8.017270000000000     -2.047550000000000      2.929710000000000
C      -7.152910000000000     -4.072570000000000      5.241170000000000
C      -8.337410000000000     -5.363390000000000      3.680920000000000
O      -8.213020000000000     -4.099620000000000      4.305110000000000
C      -5.846040000000000     -3.660880000000000      4.570330000000000
C      -9.282290000000000     -6.273810000000000      4.461340000000000
H      -7.401270000000000     -3.314860000000000      6.014330000000000
H      -7.033370000000000     -5.037700000000000      5.782920000000000
H      -8.764540000000000     -5.199240000000000      2.668620000000000
H      -7.355860000000000     -5.863660000000000      3.525460000000000
H     -10.288790000000001     -5.812840000000000      4.540720000000000
H      -9.379210000000000     -7.244640000000000      3.931540000000000
H      -8.890029999999999     -6.463810000000000      5.481560000000000
H      -5.955140000000000     -2.662170000000000      4.098060000000000
H      -5.039250000000000     -3.610740000000000      5.330700000000000
H      -5.555810000000000     -4.397950000000000      3.794260000000000
C      -6.285820000000000     -3.690910000000000      0.561160000000000
C      -6.882580000000000     -1.497930000000000     -0.158630000000000
O      -7.048110000000000     -2.522360000000000      0.806060000000000
C      -4.775370000000000     -3.458930000000000      0.596480000000000
C      -7.356970000000000     -1.894180000000000     -1.556490000000000
H      -6.519980000000000     -4.395890000000000      1.386260000000000
H      -6.606020000000000     -4.205450000000000     -0.367850000000000
H      -7.523420000000000     -0.651440000000000      0.169480000000000
H      -5.847190000000000     -1.098350000000000     -0.167730000000000
H      -8.401600000000000     -2.268050000000000     -1.511510000000000
H      -7.319580000000000     -1.006150000000000     -2.221460000000000
H      -6.698850000000000     -2.671590000000000     -1.994130000000000
H      -4.489220000000000     -2.970500000000000      1.550940000000000
H      -4.254010000000000     -4.435060000000000      0.522720000000000
H      -4.446010000000000     -2.836890000000000     -0.259890000000000
Na    -10.398529999999999     -3.517410000000000      5.085490000000000
C     -10.319810000000000     -0.384710000000000      3.971160000000000
C     -11.276550000000000     -1.850130000000000      2.416770000000000
O     -10.353220000000000     -1.707630000000000      3.477010000000000
C      -9.603740000000000     -0.384280000000000      5.316060000000000
C     -10.710260000000000     -1.338260000000000      1.093770000000000
H      -9.747270000000000      0.267690000000000      3.277680000000000
H     -11.340170000000001      0.027510000000000      4.139010000000000
H     -11.476570000000001     -2.936940000000000      2.300700000000000
H     -12.258559999999999     -1.380860000000000      2.646770000000000
H      -9.762390000000000     -1.863400000000000      0.855670000000000
H     -11.439930000000000     -1.533960000000000      0.280320000000000
H     -10.523970000000000     -0.245960000000000      1.139560000000000
H      -8.576449999999999     -0.792900000000000      5.205120000000000
H      -9.537190000000001      0.652080000000000      5.708840000000000
H     -10.160869999999999     -1.007330000000000      6.046500000000000
C     -12.924830000000000     -2.774600000000000      7.098820000000000
C     -11.089580000000000     -3.399390000000000      8.365200000000000
O     -11.558080000000000     -3.107340000000000      7.071280000000000
C     -13.374260000000000     -2.499230000000000      5.670020000000000
C      -9.603940000000000     -3.720030000000000      8.268920000000000
H     -13.532850000000000     -3.619200000000000      7.494640000000000
H     -13.092750000000001     -1.851410000000000      7.697540000000000
H     -11.209390000000001     -2.520690000000000      9.038209999999999
H     -11.610090000000000     -4.290790000000000      8.782260000000001
H      -9.055660000000000     -2.846910000000000      7.854730000000000
H      -9.197050000000001     -3.957000000000000      9.273800000000000
H      -9.444990000000001     -4.593220000000000      7.599530000000000
H     -13.219880000000000     -3.401980000000000      5.040240000000000
H     -14.449190000000000     -2.224740000000000      5.651480000000000
H     -12.783340000000001     -1.662190000000000      5.243930000000000
Mg     -8.057539999999999    -10.711930000000001     -1.052970000000000
H      -6.082670000000000     -9.674070000000000     -3.182040000000000
C      -5.315690000000000     -8.678330000000001     -1.392680000000000
C      -6.454740000000000     -9.163460000000001     -2.270000000000000
C      -4.487440000000000     -7.646060000000000     -2.152200000000000
H      -5.736380000000000     -8.226390000000000     -0.467980000000000
H      -4.684590000000000     -9.548420000000000     -1.107200000000000
H      -4.084360000000000     -8.108540000000000     -3.079580000000000
H      -5.136950000000000     -6.787310000000000     -2.430410000000000
C      -3.328630000000000     -7.139010000000000     -1.306880000000000
H      -7.149850000000000     -8.337529999999999     -2.528720000000000
H      -3.710530000000000     -6.660770000000000     -0.380940000000000
H      -2.655390000000000     -7.979530000000000     -1.035110000000000
H      -2.753540000000000     -6.390020000000000     -1.889950000000000
C      -9.682119999999999    -12.647040000000001     -2.966530000000000
C     -10.473979999999999    -13.754230000000000     -2.704910000000000
C     -10.455390000000000    -13.943910000000001     -1.331510000000000
C      -9.645080000000000    -12.958780000000001     -0.815040000000000
N      -9.193759999999999    -12.177420000000000     -1.811780000000000
C      -9.280210000000000    -12.717219999999999      0.637110000000000
N      -8.248580000000000    -11.662870000000000      0.732250000000000
C      -7.695910000000000    -11.245540000000000      2.032680000000000
H     -11.006850000000000    -14.352530000000000     -3.429920000000000
H      -9.484200000000000    -12.216210000000000     -3.941480000000000
H     -10.967169999999999    -14.717750000000001     -0.773620000000000
H      -8.882910000000001    -13.661130000000000      1.057320000000000
H     -10.203730000000000    -12.416340000000000      1.173420000000000
C      -6.927510000000000    -12.418310000000000      2.671210000000000
C      -6.710710000000000    -10.085120000000000      1.802430000000000
C      -8.815830000000000    -10.765000000000001      2.972480000000000
H      -6.112870000000000    -12.756740000000001      1.993650000000000
H      -6.475650000000000    -12.113260000000000      3.638980000000000
H      -7.597460000000000    -13.279199999999999      2.869220000000000
H      -7.228560000000000     -9.212920000000000      1.349310000000000
H      -6.259100000000000     -9.757339999999999      2.765390000000000
H      -5.887190000000000    -10.396360000000000      1.124440000000000
H      -9.371130000000001     -9.920809999999999      2.509840000000000
H      -9.530379999999999    -11.584320000000000      3.192480000000000
H      -8.391000000000000    -10.420999999999999      3.940020000000000
