125

Mg      0.132700000000000     -0.532060000000000      0.133040000000000
C      -1.105810000000000     -0.961600000000000     -2.773530000000000
C       1.039420000000000     -1.986760000000000     -2.588880000000000
O       0.218800000000000     -0.879230000000000     -2.284570000000000
C      -1.894530000000000     -2.161490000000000     -2.250040000000000
C       1.411200000000000     -2.025830000000000     -4.061990000000000
H      -1.621590000000000     -0.060550000000000     -2.395740000000000
H      -1.147420000000000     -0.873500000000000     -3.877190000000000
H       1.977230000000000     -1.849190000000000     -2.007340000000000
H       0.617190000000000     -2.950460000000000     -2.236970000000000
H       1.807590000000000     -1.035520000000000     -4.370400000000000
H       2.189260000000000     -2.799530000000000     -4.226300000000000
H       0.521400000000000     -2.279860000000000     -4.672140000000000
H      -1.759370000000000     -2.268780000000000     -1.155470000000000
H      -2.973500000000000     -2.010850000000000     -2.463410000000000
H      -1.568390000000000     -3.091610000000000     -2.755660000000000
H      -0.552450000000000     -2.556330000000000      1.605740000000000
C       1.619530000000000     -2.419470000000000      1.746690000000000
C       0.330810000000000     -2.420240000000000      0.950480000000000
C       1.647640000000000     -1.242030000000000      2.728140000000000
H       1.679400000000000     -3.385940000000000      2.284960000000000
H       2.484520000000000     -2.326450000000000      1.052300000000000
H       1.695360000000000     -0.287760000000000      2.163150000000000
H       0.727040000000000     -1.231520000000000      3.348780000000000
C       2.851180000000000     -1.341480000000000      3.657010000000000
H       0.344060000000000     -3.195860000000000      0.158950000000000
H       2.774310000000000     -2.271710000000000      4.259720000000000
H       3.797410000000000     -1.358250000000000      3.076120000000000
H       2.866160000000000     -0.472440000000000      4.347830000000000
C       2.400950000000000      2.277470000000000      1.404360000000000
C       2.697450000000000      1.529840000000000      0.287410000000000
C       1.570350000000000      1.523770000000000     -0.513960000000000
C       0.611390000000000      2.222680000000000      0.104960000000000
N       1.086540000000000      2.758660000000000      1.318990000000000
C      -0.798950000000000      2.434110000000000     -0.380300000000000
N      -1.588110000000000      1.191730000000000     -0.305130000000000
C      -2.526770000000000      1.027590000000000      0.832170000000000
H       3.636570000000000      1.026940000000000      0.095150000000000
H       3.066430000000000      2.461130000000000      2.234340000000000
H       1.484950000000000      1.018020000000000     -1.463550000000000
H      -0.768350000000000      2.777010000000000     -1.436790000000000
H      -1.257500000000000      3.241510000000000      0.211790000000000
C      -3.627280000000000      2.105540000000000      0.791550000000000
C      -3.204880000000000     -0.349070000000000      0.680480000000000
C      -1.798860000000000      1.056800000000000      2.193310000000000
H      -4.114170000000000      2.114800000000000     -0.206690000000000
H      -4.400920000000000      1.898080000000000      1.561800000000000
H      -3.231050000000000      3.116120000000000      1.006570000000000
H      -2.456640000000000     -1.164910000000000      0.751260000000000
H      -3.959670000000000     -0.518500000000000      1.479940000000000
H      -3.713940000000000     -0.430150000000000     -0.304020000000000
H      -1.082270000000000      0.212540000000000      2.279560000000000
H      -1.245870000000000      2.004850000000000      2.334940000000000
H      -2.530320000000000      0.969630000000000      3.026660000000000
Na     -7.320060000000000      3.182440000000000      8.771300000000000
C      -4.073940000000000      3.279050000000000      9.246680000000000
C      -4.623760000000000      4.258930000000000      7.235980000000000
O      -4.795910000000000      3.115210000000000      8.044589999999999
C      -4.252560000000000      2.036610000000000     10.107640000000000
C      -5.411990000000000      4.084130000000000      5.946050000000000
H      -2.984970000000000      3.398110000000000      9.043080000000000
H      -4.460070000000000      4.150320000000000      9.823250000000000
H      -5.009020000000000      5.169400000000000      7.749590000000000
H      -3.553910000000000      4.386100000000000      6.960450000000000
H      -6.492200000000000      3.958360000000000      6.171690000000000
H      -5.281340000000000      4.980360000000000      5.302930000000000
H      -5.048790000000000      3.191000000000000      5.394440000000000
H      -3.869150000000000      1.142090000000000      9.572270000000000
H      -3.690630000000000      2.154280000000000     11.058389999999999
H      -5.327750000000000      1.885720000000000     10.342570000000000
Na     -3.452990000000000      1.248730000000000      6.756100000000000
Mg      1.023500000000000      6.964780000000000      7.623060000000000
C       3.187620000000000      3.842100000000000      6.892670000000000
C       2.585220000000000      4.766690000000000      4.868100000000000
O       2.133960000000000      4.444220000000000      6.167240000000000
C       2.618320000000000      3.110880000000000      8.098420000000001
C       1.491500000000000      5.517010000000000      4.121600000000000
H       3.731960000000000      3.082880000000000      6.286440000000000
H       3.900010000000000      4.617100000000000      7.246990000000000
H       3.488070000000000      5.414980000000000      4.905240000000000
H       2.812470000000000      3.841630000000000      4.296440000000000
H       1.237430000000000      6.457430000000000      4.651470000000000
H       1.840850000000000      5.768260000000000      3.097720000000000
H       0.581390000000000      4.885880000000000      4.046260000000000
H       1.907380000000000      2.325610000000000      7.768850000000000
H       3.440540000000000      2.644940000000000      8.680310000000000
H       2.082130000000000      3.810800000000000      8.758360000000000
H      -1.292950000000000      6.020060000000000      5.455000000000000
C      -1.517470000000000      7.996610000000000      6.373950000000000
C      -1.199530000000000      6.508990000000000      6.445630000000000
C      -0.561020000000000      8.726129999999999      5.422960000000000
H      -2.564130000000000      8.108850000000000      6.022540000000000
H      -1.427300000000000      8.437250000000001      7.391640000000000
H       0.481290000000000      8.660570000000000      5.805110000000000
H      -0.600590000000000      8.256880000000001      4.416700000000000
C      -0.946940000000000     10.196080000000000      5.285970000000000
H      -1.848530000000000      6.006710000000000      7.190030000000000
H      -1.978470000000000     10.280200000000001      4.881790000000000
H      -0.898230000000000     10.706619999999999      6.271240000000000
H      -0.250660000000000     10.703180000000000      4.585140000000000
C       3.560900000000000      7.847220000000000      5.946310000000000
C       4.899630000000000      7.935020000000000      6.288580000000000
C       4.997770000000000      7.547140000000000      7.616840000000000
C       3.722830000000000      7.219270000000000      8.021649999999999
N       2.868010000000000      7.410790000000000      7.004170000000000
C       3.260780000000000      6.732800000000000      9.383430000000001
N       1.875760000000000      6.207310000000000      9.310000000000000
C       1.084020000000000      6.074640000000000     10.547870000000000
H       5.708540000000000      8.248310000000000      5.644550000000000
H       3.129840000000000      8.081759999999999      4.979250000000000
H       5.899480000000000      7.497920000000000      8.213580000000000
H       3.923320000000000      5.907020000000000      9.715870000000001
H       3.346610000000000      7.584500000000000     10.087710000000000
C       0.644700000000000      7.455350000000000     11.063580000000000
C      -0.179720000000000      5.248320000000000     10.231019999999999
C       1.895320000000000      5.328080000000000     11.626760000000001
H       0.030310000000000      7.975470000000000     10.297210000000000
H       0.033310000000000      7.343920000000000     11.985770000000000
H       1.516110000000000      8.093019999999999     11.310490000000000
H       0.083090000000000      4.236050000000000      9.858459999999999
H      -0.806490000000000      5.120300000000000     11.141040000000000
H      -0.795650000000000      5.750880000000000      9.455909999999999
H       2.215600000000000      4.333310000000000     11.246829999999999
H       2.801250000000000      5.901240000000000     11.913460000000001
H       1.286170000000000      5.173510000000000     12.542579999999999
