125

Mg     -0.841260000000000     -0.476150000000000     -0.134290000000000
C       2.365750000000000     -0.641200000000000     -0.858890000000000
C       1.302330000000000      1.030670000000000     -2.201670000000000
O       1.158980000000000     -0.089270000000000     -1.355300000000000
C       3.347630000000000      0.363690000000000     -0.252180000000000
C       1.944690000000000      0.672650000000000     -3.532670000000000
H       2.071260000000000     -1.319610000000000     -0.034380000000000
H       2.854570000000000     -1.275280000000000     -1.625770000000000
H       0.281240000000000      1.400370000000000     -2.415230000000000
H       1.806450000000000      1.878620000000000     -1.697640000000000
H       1.915460000000000      1.559480000000000     -4.198910000000000
H       1.389640000000000     -0.160520000000000     -4.011380000000000
H       2.999260000000000      0.371680000000000     -3.378960000000000
H       2.844850000000000      0.997090000000000      0.497030000000000
H       3.795780000000000      1.001830000000000     -1.040010000000000
H       4.163690000000000     -0.182910000000000      0.261230000000000
H      -1.741530000000000     -1.981340000000000     -2.142030000000000
C      -3.267510000000000     -0.413470000000000     -1.983140000000000
C      -2.293260000000000     -1.426050000000000     -1.357130000000000
C      -2.611570000000000      0.708700000000000     -2.812170000000000
H      -3.981670000000000     -0.968670000000000     -2.625980000000000
H      -3.837340000000000      0.075080000000000     -1.163930000000000
H      -3.417820000000000      1.365920000000000     -3.209640000000000
H      -1.970400000000000      1.332770000000000     -2.157680000000000
C      -1.795520000000000      0.200010000000000     -4.000430000000000
H      -2.845100000000000     -2.142380000000000     -0.718960000000000
H      -0.949070000000000     -0.422420000000000     -3.652320000000000
H      -2.432530000000000     -0.397210000000000     -4.685050000000000
H      -1.378810000000000      1.062900000000000     -4.565160000000000
C       0.203940000000000      3.302950000000000      0.220150000000000
C      -1.107440000000000      2.886500000000000      0.239890000000000
C      -1.179110000000000      1.785570000000000      1.075230000000000
C       0.052140000000000      1.523520000000000      1.526970000000000
N       0.975390000000000      2.472380000000000      1.044260000000000
C       0.442350000000000      0.356210000000000      2.394260000000000
N       0.115870000000000     -0.890700000000000      1.691180000000000
C       0.265620000000000     -2.180230000000000      2.408220000000000
H      -1.917890000000000      3.332690000000000     -0.320550000000000
H       0.597800000000000      4.130830000000000     -0.352060000000000
H      -2.068850000000000      1.202170000000000      1.280330000000000
H      -0.097280000000000      0.430290000000000      3.355210000000000
H       1.537110000000000      0.404630000000000      2.572830000000000
C      -0.753670000000000     -2.285530000000000      3.559720000000000
C       0.011830000000000     -3.328100000000000      1.417240000000000
C       1.697380000000000     -2.332950000000000      2.976240000000000
H      -1.789780000000000     -2.209430000000000      3.169280000000000
H      -0.643700000000000     -3.257080000000000      4.089950000000000
H      -0.598530000000000     -1.488830000000000      4.314990000000000
H       0.753070000000000     -3.308220000000000      0.590720000000000
H       0.092070000000000     -4.313850000000000      1.928810000000000
H      -1.005100000000000     -3.244760000000000      0.979990000000000
H       2.453340000000000     -2.263050000000000      2.165270000000000
H       1.920680000000000     -1.551230000000000      3.731890000000000
H       1.821450000000000     -3.318640000000000      3.476470000000000
Na     -2.025220000000000     15.171360000000000      7.729640000000000
C      -1.667560000000000     12.311909999999999      6.158760000000000
C      -0.488390000000000     12.298190000000000      8.137290000000000
O      -0.736260000000000     13.019130000000001      6.949700000000000
C      -1.919690000000000     13.087840000000000      4.873790000000000
C       0.507040000000000     13.068360000000000      8.992620000000001
H      -1.270430000000000     11.309340000000001      5.878360000000000
H      -2.640710000000000     12.210610000000001      6.691030000000000
H      -1.423780000000000     12.176500000000001      8.730020000000000
H      -0.037190000000000     11.308140000000000      7.907230000000000
H       0.096060000000000     14.066720000000000      9.253190000000000
H       0.708720000000000     12.507070000000001      9.929729999999999
H       1.462180000000000     13.200570000000001      8.441260000000000
H      -0.972800000000000     13.203049999999999      4.304640000000000
H      -2.653480000000000     12.542350000000001      4.243290000000000
H      -2.326590000000000     14.094429999999999      5.108720000000000
Na      1.522630000000000     12.789650000000000      5.612120000000000
Mg     -0.582290000000000      6.053950000000000      7.526360000000000
C       1.942020000000000      5.739600000000000      4.612620000000000
C       3.144370000000000      5.799680000000000      6.579850000000000
O       2.046330000000000      6.351570000000000      5.883000000000000
C       1.072070000000000      6.597990000000000      3.707530000000000
C       3.190370000000000      6.371020000000000      7.990060000000000
H       2.931830000000000      5.647760000000000      4.110760000000000
H       1.477710000000000      4.735180000000000      4.708360000000000
H       3.057450000000000      4.693630000000000      6.656170000000000
H       4.098340000000000      6.066010000000000      6.074910000000000
H       2.260560000000000      6.120750000000000      8.539780000000000
H       4.055100000000000      5.943000000000000      8.540170000000000
H       3.300840000000000      7.474840000000000      7.949150000000000
H       1.519740000000000      7.606430000000000      3.591310000000000
H       0.975290000000000      6.118570000000000      2.711160000000000
H       0.063600000000000      6.712960000000000      4.134850000000000
H       1.124230000000000      8.532530000000000      8.905989999999999
C      -0.583380000000000      7.738880000000000     10.026339999999999
C       0.077960000000000      8.207160000000000      8.736969999999999
C       0.163510000000000      6.545870000000000     10.634850000000000
H      -0.589160000000000      8.589280000000000     10.739350000000000
H      -1.633000000000000      7.440480000000000      9.809080000000000
H       0.121480000000000      5.675930000000000      9.943330000000000
H       1.228270000000000      6.814800000000000     10.803080000000000
C      -0.450680000000000      6.145250000000000     11.973000000000001
H      -0.511370000000000      9.020450000000000      8.269150000000000
H      -0.394900000000000      6.996600000000000     12.684749999999999
H      -1.512850000000000      5.847790000000000     11.842290000000000
H       0.110800000000000      5.288760000000000     12.402279999999999
C       1.121890000000000      3.415080000000000      7.928160000000000
C       1.121730000000000      2.211950000000000      7.243340000000000
C       0.163840000000000      2.320540000000000      6.246020000000000
C      -0.362870000000000      3.588900000000000      6.349370000000000
N       0.221170000000000      4.233520000000000      7.371210000000000
C      -1.447200000000000      4.231880000000000      5.503000000000000
N      -1.502350000000000      5.694200000000000      5.745890000000000
C      -2.714890000000000      6.446410000000000      5.370570000000000
H       1.745780000000000      1.354450000000000      7.450260000000000
H       1.749680000000000      3.671370000000000      8.774170000000000
H      -0.106600000000000      1.564400000000000      5.522040000000000
H      -1.211750000000000      4.070730000000000      4.430500000000000
H      -2.404330000000000      3.731780000000000      5.752790000000000
C      -3.869110000000000      6.136750000000000      6.338740000000000
C      -2.398640000000000      7.954120000000000      5.456790000000000
C      -3.123030000000000      6.117050000000000      3.919900000000000
H      -3.584220000000000      6.409010000000000      7.378040000000000
H      -4.772350000000000      6.722060000000000      6.058950000000000
H      -4.141290000000000      5.063300000000000      6.316490000000000
H      -1.571990000000000      8.232970000000000      4.770200000000000
H      -3.288050000000000      8.561010000000000      5.177370000000000
H      -2.099110000000000      8.236260000000000      6.488050000000000
H      -2.283120000000000      6.336950000000000      3.225130000000000
H      -3.392920000000000      5.045870000000000      3.814090000000000
H      -4.001490000000000      6.721970000000000      3.609950000000000
