95

Mg      0.313460000000000      0.875080000000000     -0.002090000000000
H       1.618640000000000      1.715720000000000     -2.538250000000000
C       3.333450000000000      1.693570000000000     -1.152660000000000
C       1.898870000000000      2.047680000000000     -1.517890000000000
C       3.601020000000000      0.179720000000000     -1.078190000000000
H       4.008770000000000      2.168370000000000     -1.893050000000000
H       3.548870000000000      2.119680000000000     -0.148810000000000
H       4.675200000000000      0.040920000000000     -0.826660000000000
H       2.998210000000000     -0.280170000000000     -0.265960000000000
C       3.309690000000000     -0.560310000000000     -2.382310000000000
H       1.694210000000000      3.130090000000000     -1.391030000000000
H       2.224470000000000     -0.531520000000000     -2.613380000000000
H       3.882380000000000     -0.110590000000000     -3.219630000000000
H       3.605800000000000     -1.625910000000000     -2.276400000000000
C       1.686300000000000     -0.756170000000000      2.385670000000000
C       1.113920000000000     -1.728990000000000      3.373000000000000
C      -0.315340000000000     -1.841420000000000      2.873430000000000
C      -0.503310000000000     -1.040370000000000      1.826980000000000
N       0.671860000000000     -0.369900000000000      1.502200000000000
C      -1.802130000000000     -0.791680000000000      1.059870000000000
N      -1.551780000000000      0.067220000000000     -0.122030000000000
C      -2.658380000000000      0.468910000000000     -1.018050000000000
H       1.645770000000000     -2.701590000000000      3.358260000000000
H       2.701680000000000     -0.382780000000000      2.357260000000000
H      -1.086980000000000     -2.464900000000000      3.302970000000000
H      -2.493290000000000     -0.282150000000000      1.761340000000000
H      -2.229220000000000     -1.757240000000000      0.732190000000000
C      -3.778990000000000      1.181370000000000     -0.235980000000000
C      -2.119820000000000      1.437340000000000     -2.091280000000000
C      -3.219110000000000     -0.777390000000000     -1.727260000000000
H      -3.382640000000000      2.084520000000000      0.275810000000000
H      -4.593920000000000      1.497990000000000     -0.923840000000000
H      -4.229100000000000      0.508490000000000      0.521580000000000
H      -1.302770000000000      0.966590000000000     -2.678460000000000
H      -2.930320000000000      1.723650000000000     -2.800670000000000
H      -1.727830000000000      2.368270000000000     -1.628610000000000
H      -2.414730000000000     -1.278860000000000     -2.308700000000000
H      -3.628960000000000     -1.503810000000000     -0.997520000000000
H      -4.040330000000000     -0.503040000000000     -2.423180000000000
Na      2.761760000000000      2.860770000000000      3.183860000000000
C       0.844610000000000      2.272870000000000      5.782570000000000
C       3.051490000000000      1.860600000000000      6.298580000000000
O       2.017110000000000      1.601400000000000      5.373780000000000
C      -0.268390000000000      1.985160000000000      4.785000000000000
C       4.318050000000000      1.149620000000000      5.842930000000000
H       0.508520000000000      1.911000000000000      6.781140000000000
H       1.006790000000000      3.374580000000000      5.801180000000000
H       3.274540000000000      2.950940000000000      6.349340000000000
H       2.785650000000000      1.469680000000000      7.307070000000000
H       4.626490000000000      1.520640000000000      4.842390000000000
H       5.138560000000000      1.344450000000000      6.565970000000000
H       4.142290000000000      0.054340000000000      5.785830000000000
H      -0.469400000000000      0.893810000000000      4.739270000000000
H      -1.196320000000000      2.508960000000000      5.098860000000000
H       0.022380000000000      2.342060000000000      3.774020000000000
Na      1.300460000000000     -0.955980000000000      5.474010000000000
Mg     -3.400550000000000      4.830480000000000      7.054470000000000
H      -6.152350000000000      6.195140000000000      6.892560000000000
C      -6.748520000000000      4.108830000000000      7.224510000000000
C      -5.892510000000000      5.172820000000000      6.550480000000000
C      -6.526940000000000      4.015870000000000      8.743140000000000
H      -7.815960000000000      4.318120000000000      7.003970000000000
H      -6.484250000000000      3.122970000000000      6.784120000000000
H      -7.196800000000000      3.219110000000000      9.133850000000001
H      -5.478220000000000      3.720510000000000      8.959070000000001
C      -6.835460000000000      5.313870000000000      9.487930000000000
H      -5.987030000000000      5.117850000000000      5.446780000000000
H      -6.121270000000000      6.112240000000000      9.197760000000001
H      -7.872980000000000      5.646460000000000      9.275800000000000
H      -6.729030000000000      5.145200000000000     10.580539999999999
C      -2.814430000000000      2.378530000000000      8.983480000000000
C      -1.710990000000000      2.057360000000000      9.758410000000000
C      -0.785330000000000      3.073390000000000      9.577610000000000
C      -1.367470000000000      3.978440000000000      8.720170000000000
N      -2.585560000000000      3.540080000000000      8.358020000000000
C      -0.788810000000000      5.280130000000000      8.204110000000000
N      -1.839120000000000      6.055380000000000      7.510630000000000
C      -1.544790000000000      7.372000000000000      6.918380000000000
H      -1.592130000000000      1.182050000000000     10.380620000000000
H      -3.721220000000000      1.792820000000000      8.885840000000000
H       0.195150000000000      3.150060000000000     10.030160000000000
H       0.047150000000000      5.031440000000000      7.518390000000000
H      -0.414720000000000      5.863010000000000      9.067489999999999
C      -0.399570000000000      7.274740000000000      5.894350000000000
C      -2.810130000000000      7.882570000000000      6.204850000000000
C      -1.177940000000000      8.370110000000000      8.034050000000001
H      -0.660470000000000      6.555280000000000      5.089000000000000
H      -0.206370000000000      8.267849999999999      5.433860000000000
H       0.542060000000000      6.943520000000000      6.378210000000000
H      -3.661020000000000      7.958350000000000      6.916030000000000
H      -2.633340000000000      8.890730000000000      5.767710000000000
H      -3.103710000000000      7.195030000000000      5.382960000000000
H      -2.008770000000000      8.443980000000000      8.769970000000001
H      -0.261600000000000      8.054830000000001      8.572910000000000
H      -0.990030000000000      9.381110000000000      7.614060000000000
