125

Mg     -0.387900000000000      0.319870000000000      0.776860000000000
C      -0.746190000000000      0.241170000000000     -2.489450000000000
C       1.073510000000000      1.677660000000000     -1.894890000000000
O      -0.080410000000000      0.979570000000000     -1.480300000000000
C       0.148820000000000     -0.662370000000000     -3.340590000000000
C       0.746550000000000      2.832240000000000     -2.828270000000000
H      -1.447340000000000     -0.432120000000000     -1.958660000000000
H      -1.369770000000000      0.907260000000000     -3.119280000000000
H       1.530150000000000      2.106720000000000     -0.982660000000000
H       1.850810000000000      1.003520000000000     -2.305190000000000
H       1.670240000000000      3.416970000000000     -3.017790000000000
H      -0.014220000000000      3.493180000000000     -2.363770000000000
H       0.359700000000000      2.446110000000000     -3.791390000000000
H       0.777470000000000     -1.304470000000000     -2.700150000000000
H       0.793270000000000     -0.058610000000000     -4.010600000000000
H      -0.484420000000000     -1.322010000000000     -3.967090000000000
H      -1.699680000000000      2.591080000000000      1.234740000000000
C      -0.033710000000000      2.694770000000000      2.658390000000000
C      -1.150980000000000      1.926520000000000      1.931900000000000
C       1.082450000000000      3.251700000000000      1.752370000000000
H      -0.496200000000000      3.532680000000000      3.220040000000000
H       0.447860000000000      2.006350000000000      3.385510000000000
H       1.819580000000000      3.785180000000000      2.394260000000000
H       1.618550000000000      2.415290000000000      1.260520000000000
C       0.583540000000000      4.237360000000000      0.695810000000000
H      -1.859280000000000      1.497130000000000      2.665810000000000
H      -0.119430000000000      3.739140000000000      0.001090000000000
H       0.075910000000000      5.099990000000000      1.174690000000000
H       1.443880000000000      4.616600000000000      0.101530000000000
C       3.230980000000000     -0.596890000000000     -0.370440000000000
C       2.949330000000000     -0.239830000000000      0.934060000000000
C       1.812190000000000     -0.934850000000000      1.298830000000000
C       1.444700000000000     -1.639710000000000      0.233000000000000
N       2.360690000000000     -1.431460000000000     -0.809970000000000
C       0.207000000000000     -2.494660000000000      0.115740000000000
N      -0.973250000000000     -1.649440000000000      0.334100000000000
C      -2.309260000000000     -2.284640000000000      0.442780000000000
H       3.491370000000000      0.478280000000000      1.537070000000000
H       4.050050000000000     -0.229590000000000     -0.969360000000000
H       1.289380000000000     -0.873860000000000      2.243880000000000
H       0.265590000000000     -3.309110000000000      0.861190000000000
H       0.171330000000000     -2.925240000000000     -0.907160000000000
C      -2.403640000000000     -3.139200000000000      1.721880000000000
C      -3.376670000000000     -1.179650000000000      0.507640000000000
C      -2.601150000000000     -3.173670000000000     -0.789950000000000
H      -2.229680000000000     -2.512760000000000      2.621370000000000
H      -3.409340000000000     -3.607420000000000      1.804140000000000
H      -1.664100000000000     -3.965080000000000      1.714820000000000
H      -3.365940000000000     -0.564160000000000     -0.416510000000000
H      -4.393290000000000     -1.620780000000000      0.616170000000000
H      -3.192280000000000     -0.513350000000000      1.376180000000000
H      -2.543070000000000     -2.580750000000000     -1.727470000000000
H      -1.882350000000000     -4.016220000000000     -0.862570000000000
H      -3.620700000000000     -3.614450000000000     -0.726570000000000
Na      7.360130000000000    -10.190390000000001      1.208690000000000
C       6.836420000000000    -12.425150000000000      3.553180000000000
C       8.751350000000000    -11.224660000000000      3.996620000000000
O       8.059680000000000    -11.968700000000000      3.016760000000000
C       6.099550000000000    -13.235139999999999      2.496030000000000
C      10.061859999999999    -10.721450000000001      3.408830000000000
H       7.012130000000000    -13.090769999999999      4.428960000000000
H       6.185840000000000    -11.567250000000000      3.838940000000000
H       8.157859999999999    -10.336869999999999      4.310700000000000
H       8.995690000000000    -11.862140000000000      4.876710000000000
H       9.862349999999999    -10.069970000000000      2.531630000000000
H      10.615000000000000    -10.134969999999999      4.172820000000000
H      10.691390000000000    -11.579200000000000      3.089410000000000
H       6.711690000000000    -14.109680000000001      2.188880000000000
H       5.134470000000000    -13.599620000000000      2.907630000000000
H       5.894450000000000    -12.604240000000001      1.605170000000000
Na      9.499510000000001    -14.165380000000001      2.772050000000000
Mg      5.416740000000000     -5.831910000000000      5.870150000000000
C       4.060520000000000     -2.806750000000000      5.364910000000000
C       4.735530000000000     -3.753970000000000      3.276790000000000
O       4.800210000000000     -3.808800000000000      4.687770000000000
C       2.596550000000000     -2.679990000000000      4.936700000000000
C       5.411580000000000     -2.516210000000000      2.699990000000000
H       4.044940000000000     -3.104660000000000      6.432440000000000
H       4.583840000000000     -1.829780000000000      5.322680000000000
H       5.287270000000000     -4.636340000000000      2.897760000000000
H       3.701740000000000     -3.885700000000000      2.900130000000000
H       5.422470000000000     -2.592710000000000      1.592670000000000
H       6.456190000000000     -2.444950000000000      3.067870000000000
H       4.856540000000000     -1.601110000000000      2.985720000000000
H       2.089920000000000     -3.660330000000000      4.992010000000000
H       2.520000000000000     -2.275890000000000      3.908380000000000
H       2.071840000000000     -1.981050000000000      5.618770000000000
H       8.003130000000001     -5.081060000000000      5.864960000000000
C       8.016780000000001     -7.007290000000000      4.823630000000000
C       7.541470000000000     -6.085040000000000      5.957240000000000
C       7.605240000000000     -6.561190000000000      3.407000000000000
H       9.122560000000000     -7.096320000000000      4.872880000000000
H       7.575990000000000     -8.012589999999999      4.991390000000000
H       7.993150000000000     -7.311250000000000      2.681560000000000
H       6.499320000000000     -6.554840000000000      3.321590000000000
C       8.156580000000000     -5.193300000000000      3.004300000000000
H       7.817930000000000     -6.519840000000000      6.938260000000000
H       7.751000000000000     -4.399290000000000      3.661330000000000
H       9.265029999999999     -5.186950000000000      3.059100000000000
H       7.852680000000000     -4.963140000000000      1.959500000000000
C       2.711630000000000     -6.657440000000000      3.088680000000000
C       3.660400000000000     -7.568180000000000      3.495830000000000
C       3.695960000000000     -7.537410000000000      4.877620000000000
C       2.816410000000000     -6.625190000000000      5.298920000000000
N       2.134030000000000     -6.042570000000000      4.210400000000000
C       2.597150000000000     -6.230010000000000      6.734120000000000
N       3.849470000000000     -5.679470000000000      7.271870000000000
C       3.929490000000000     -5.354500000000000      8.716480000000001
H       4.273960000000000     -8.176299999999999      2.844950000000000
H       2.452130000000000     -6.432490000000000      2.063280000000000
H       4.354720000000000     -8.118290000000000      5.510950000000000
H       2.271730000000000     -7.124670000000000      7.299180000000000
H       1.802440000000000     -5.455770000000000      6.770670000000000
C       3.840330000000000     -6.632760000000000      9.573860000000000
C       5.277430000000000     -4.668710000000000      8.992490000000000
C       2.796380000000000     -4.383810000000000      9.125740000000000
H       4.655380000000000     -7.337950000000000      9.308590000000001
H       3.926660000000000     -6.382450000000000     10.654380000000000
H       2.866600000000000     -7.146020000000000      9.439060000000000
H       5.368150000000000     -3.727670000000000      8.410330000000000
H       5.374420000000000     -4.416440000000000     10.072520000000001
H       6.118800000000000     -5.337550000000000      8.714960000000000
H       2.841350000000000     -3.450750000000000      8.524780000000000
H       1.795960000000000     -4.843740000000000      8.985910000000001
H       2.882880000000000     -4.106590000000000     10.199330000000000
