110

Mg     -0.365310000000000      0.349880000000000     -0.092040000000000
C      -0.593400000000000      0.917470000000000      3.037410000000000
C      -0.326990000000000      2.944310000000000      1.809270000000000
O       0.046190000000000      1.592640000000000      1.971760000000000
C      -2.116970000000000      0.869290000000000      2.925560000000000
C       0.232240000000000      3.821410000000000      2.917320000000000
H      -0.243450000000000     -0.129000000000000      2.982520000000000
H      -0.250270000000000      1.282250000000000      4.025700000000000
H       0.126800000000000      3.280190000000000      0.851200000000000
H      -1.420080000000000      3.080650000000000      1.677460000000000
H       1.321450000000000      3.633920000000000      3.024210000000000
H       0.067220000000000      4.888610000000000      2.662640000000000
H      -0.281850000000000      3.599620000000000      3.873920000000000
H      -2.423220000000000      0.584610000000000      1.899400000000000
H      -2.512290000000000      0.115320000000000      3.638130000000000
H      -2.556820000000000      1.852820000000000      3.183090000000000
H      -2.749750000000000      0.480300000000000     -1.108400000000000
C      -1.523450000000000      1.853740000000000     -2.277170000000000
C      -1.996320000000000      1.278870000000000     -0.957830000000000
C      -0.823580000000000      0.777840000000000     -3.115440000000000
H      -2.412340000000000      2.251810000000000     -2.805170000000000
H      -0.803820000000000      2.680900000000000     -2.084880000000000
H       0.119830000000000      0.472650000000000     -2.616460000000000
H      -1.469740000000000     -0.119770000000000     -3.213440000000000
C      -0.511970000000000      1.299420000000000     -4.512600000000000
H      -2.401840000000000      2.068360000000000     -0.294110000000000
H      -1.461540000000000      1.554750000000000     -5.029880000000000
H       0.132330000000000      2.202400000000000     -4.462020000000000
H       0.010450000000000      0.514830000000000     -5.099160000000000
C       2.759480000000000     -0.252990000000000     -2.218470000000000
C       2.614270000000000      0.848880000000000     -1.406310000000000
C       2.224150000000000      0.392330000000000     -0.160300000000000
C       2.110930000000000     -0.940000000000000     -0.217720000000000
N       2.470240000000000     -1.418240000000000     -1.493900000000000
C       1.661130000000000     -1.851300000000000      0.894450000000000
N       0.222600000000000     -1.693920000000000      1.174420000000000
C      -0.711270000000000     -2.709340000000000      0.627930000000000
H       2.760640000000000      1.878520000000000     -1.706750000000000
H       3.039530000000000     -0.236210000000000     -3.261540000000000
H       2.025860000000000      1.016990000000000      0.697080000000000
H       2.235330000000000     -1.607160000000000      1.813860000000000
H       1.909210000000000     -2.888850000000000      0.620950000000000
C      -0.417780000000000     -4.098860000000000      1.225490000000000
C      -2.138570000000000     -2.304080000000000      1.048720000000000
C      -0.664040000000000     -2.769340000000000     -0.913950000000000
H      -0.405150000000000     -4.041710000000000      2.334640000000000
H      -1.199440000000000     -4.824520000000000      0.915300000000000
H       0.548730000000000     -4.509090000000000      0.876320000000000
H      -2.416400000000000     -1.327640000000000      0.601520000000000
H      -2.888650000000000     -3.052480000000000      0.709440000000000
H      -2.211660000000000     -2.212750000000000      2.153800000000000
H      -0.985030000000000     -1.804160000000000     -1.360140000000000
H       0.354340000000000     -3.004570000000000     -1.277540000000000
H      -1.344930000000000     -3.563120000000000     -1.292540000000000
Na    -17.102319999999999     -2.399760000000000      5.784740000000000
C     -14.821000000000000     -3.985120000000000      4.043400000000000
C     -13.868880000000001     -2.978970000000000      5.883590000000000
O     -14.706930000000000     -2.777940000000000      4.765730000000000
C     -15.714290000000000     -3.759810000000000      2.832010000000000
C     -13.762269999999999     -1.678310000000000      6.666920000000000
H     -13.826359999999999     -4.319260000000000      3.672850000000000
H     -15.290150000000001     -4.777730000000000      4.669670000000000
H     -14.295600000000000     -3.750460000000000      6.564570000000000
H     -12.842370000000001     -3.267290000000000      5.560840000000000
H     -14.767150000000001     -1.359490000000000      7.017080000000000
H     -13.104770000000000     -1.824700000000000      7.550000000000000
H     -13.330560000000000     -0.880340000000000      6.026130000000000
H     -15.275910000000000     -2.980210000000000      2.173370000000000
H     -15.809810000000001     -4.704360000000000      2.255500000000000
H     -16.725110000000001     -3.434360000000000      3.157740000000000
Na    -13.264659999999999     -1.233310000000000      3.190690000000000
Mg     -7.187650000000000     -3.940930000000000      3.549860000000000
H      -4.139510000000000     -4.314000000000000      3.210100000000000
C      -4.878150000000000     -6.222550000000000      2.439980000000000
C      -4.916190000000000     -5.074770000000000      3.431820000000000
C      -3.535000000000000     -6.939760000000000      2.537730000000000
H      -5.706490000000000     -6.928300000000000      2.668490000000000
H      -5.028540000000000     -5.818470000000000      1.414900000000000
H      -2.718010000000000     -6.218950000000000      2.319800000000000
H      -3.402010000000000     -7.332190000000000      3.569620000000000
C      -3.453510000000000     -8.096190000000000      1.552260000000000
H      -4.834110000000000     -5.438440000000000      4.477590000000000
H      -4.250780000000000     -8.839670000000000      1.765550000000000
H      -3.565960000000000     -7.722860000000000      0.512220000000000
H      -2.464680000000000     -8.589790000000001      1.652720000000000
C      -7.078230000000000     -0.954760000000000      4.604940000000000
C      -8.027160000000000      0.055660000000000      4.620000000000000
C      -9.170980000000000     -0.460890000000000      4.030390000000000
C      -8.870340000000001     -1.753720000000000      3.667860000000000
N      -7.607480000000000     -2.041530000000000      4.030010000000000
C      -9.768580000000000     -2.761930000000000      2.977890000000000
N      -8.993330000000000     -3.968110000000000      2.618510000000000
C      -9.619059999999999     -5.100770000000000      1.914580000000000
H      -7.902210000000000      1.052430000000000      5.017700000000000
H      -6.068610000000000     -0.892250000000000      4.995340000000000
H     -10.112310000000001      0.050970000000000      3.874960000000000
H     -10.172530000000000     -2.295860000000000      2.058590000000000
H     -10.594279999999999     -3.014450000000000      3.675100000000000
C     -10.068610000000000     -4.655880000000000      0.509920000000000
C      -8.577579999999999     -6.223860000000000      1.760060000000000
C     -10.817860000000000     -5.642260000000000      2.712360000000000
H      -9.198250000000000     -4.273610000000000     -0.067590000000000
H     -10.514920000000000     -5.506040000000000     -0.048590000000000
H     -10.831009999999999     -3.852890000000000      0.566180000000000
H      -8.232229999999999     -6.579970000000000      2.754070000000000
H      -9.013389999999999     -7.090270000000000      1.214100000000000
H      -7.694270000000000     -5.866180000000000      1.188620000000000
H     -10.494330000000000     -5.959330000000000      3.727120000000000
H     -11.606130000000000     -4.870080000000000      2.814350000000000
H     -11.268260000000000     -6.516050000000000      2.194260000000000
