170

Mg     -0.788200000000000     -0.574580000000000     -0.019270000000000
C       1.430080000000000      0.988560000000000      1.861390000000000
C       2.433540000000000     -0.915720000000000      0.815780000000000
O       1.248910000000000     -0.234140000000000      1.168510000000000
C       2.431360000000000      1.958270000000000      1.229220000000000
C       3.176540000000000     -1.454040000000000      2.028510000000000
H       0.447990000000000      1.500340000000000      1.834290000000000
H       1.658550000000000      0.806810000000000      2.931300000000000
H       2.129730000000000     -1.784950000000000      0.201460000000000
H       3.082690000000000     -0.315430000000000      0.148300000000000
H       4.024450000000000     -2.082030000000000      1.685070000000000
H       2.493370000000000     -2.072030000000000      2.646000000000000
H       3.571330000000000     -0.618450000000000      2.638890000000000
H       2.197580000000000      2.120160000000000      0.163540000000000
H       3.467480000000000      1.577470000000000      1.330540000000000
H       2.368880000000000      2.938780000000000      1.742030000000000
H      -1.463980000000000     -2.478230000000000      1.726290000000000
C      -1.466380000000000     -3.542730000000000     -0.191060000000000
C      -1.788380000000000     -2.315760000000000      0.678780000000000
C       0.032350000000000     -3.874760000000000     -0.334040000000000
H      -1.993600000000000     -4.421580000000000      0.234850000000000
H      -1.859780000000000     -3.357950000000000     -1.213640000000000
H       0.129310000000000     -4.776500000000000     -0.980030000000000
H       0.553850000000000     -3.042550000000000     -0.848390000000000
C       0.727030000000000     -4.175320000000000      0.994030000000000
H      -2.876050000000000     -2.110370000000000      0.659820000000000
H       0.701690000000000     -3.288270000000000      1.655690000000000
H       0.238060000000000     -5.029520000000000      1.506330000000000
H       1.792270000000000     -4.435690000000000      0.807850000000000
C       2.170320000000000     -0.103580000000000     -2.581100000000000
C       1.070460000000000     -0.883060000000000     -2.846970000000000
C      -0.053150000000000     -0.167210000000000     -2.469730000000000
C       0.357980000000000      1.004640000000000     -1.964540000000000
N       1.754190000000000      1.122190000000000     -2.031990000000000
C      -0.539980000000000      2.053030000000000     -1.355410000000000
N      -1.246840000000000      1.469470000000000     -0.210840000000000
C      -2.302260000000000      2.264460000000000      0.465190000000000
H       1.093430000000000     -1.885940000000000     -3.256230000000000
H       3.200340000000000     -0.380050000000000     -2.746330000000000
H      -1.074590000000000     -0.513870000000000     -2.521930000000000
H      -1.243800000000000      2.412420000000000     -2.128670000000000
H       0.097460000000000      2.894950000000000     -1.009090000000000
C      -3.507130000000000      2.478510000000000     -0.471770000000000
C      -2.775030000000000      1.498980000000000      1.711640000000000
C      -1.752680000000000      3.639320000000000      0.915610000000000
H      -3.934510000000000      1.503200000000000     -0.784700000000000
H      -4.300240000000000      3.065680000000000      0.041820000000000
H      -3.221610000000000      3.049260000000000     -1.378290000000000
H      -1.939810000000000      1.356700000000000      2.429420000000000
H      -3.584870000000000      2.058810000000000      2.231990000000000
H      -3.169360000000000      0.500820000000000      1.427930000000000
H      -0.883470000000000      3.513510000000000      1.595690000000000
H      -1.433470000000000      4.254160000000000      0.048550000000000
H      -2.532390000000000      4.217570000000000      1.458920000000000
Na      0.866330000000000     -0.390190000000000      9.619859999999999
C       2.325640000000000      0.797380000000000      7.032800000000000
C       1.826160000000000     -1.427810000000000      6.486140000000000
O       2.191480000000000     -0.526030000000000      7.513290000000000
C       0.996680000000000      1.541010000000000      7.116350000000000
C       3.059420000000000     -2.021940000000000      5.811200000000000
H       3.059840000000000      1.321190000000000      7.680960000000000
H       2.739400000000000      0.840830000000000      6.000000000000000
H       1.248770000000000     -2.254210000000000      6.952800000000000
H       1.152330000000000     -0.967600000000000      5.729370000000000
H       3.690730000000000     -2.553590000000000      6.552730000000000
H       2.739820000000000     -2.750030000000000      5.037420000000000
H       3.661890000000000     -1.226660000000000      5.325900000000000
H       0.629990000000000      1.553460000000000      8.164110000000001
H       1.135280000000000      2.587200000000000      6.773320000000000
H       0.235800000000000      1.054480000000000      6.472710000000000
C      -1.982390000000000     -1.054710000000000      7.939430000000000
C      -2.324680000000000     -1.109130000000000     10.298470000000000
O      -1.395940000000000     -1.058710000000000      9.229189999999999
C      -2.851730000000000      0.171990000000000      7.660170000000000
C      -3.154010000000000     -2.392870000000000     10.328030000000000
H      -1.143120000000000     -1.022980000000000      7.213300000000000
H      -2.520680000000000     -2.001230000000000      7.728220000000000
H      -1.727250000000000     -1.091670000000000     11.235390000000001
H      -2.962140000000000     -0.201830000000000     10.337990000000000
H      -2.484740000000000     -3.278610000000000     10.310840000000001
H      -3.759990000000000     -2.415850000000000     11.257890000000000
H      -3.853480000000000     -2.434890000000000      9.468840000000000
H      -2.274730000000000      1.101210000000000      7.850910000000000
H      -3.170610000000000      0.158120000000000      6.596690000000000
H      -3.767300000000000      0.163720000000000      8.285280000000000
Na      4.077060000000000     -1.519350000000000      8.619429999999999
C       2.972810000000000     -0.938310000000000     11.713720000000000
C       2.353980000000000     -3.054870000000000     10.930479999999999
O       2.661580000000000     -1.721020000000000     10.579630000000000
C       3.638720000000000      0.350350000000000     11.248210000000000
C       0.925010000000000     -3.191050000000000     11.451510000000001
H       2.043080000000000     -0.667000000000000     12.258419999999999
H       3.686740000000000     -1.452070000000000     12.396089999999999
H       2.436510000000000     -3.664690000000000     10.005300000000000
H       3.089950000000000     -3.483610000000000     11.646200000000000
H       0.206060000000000     -2.811720000000000     10.696590000000000
H       0.704340000000000     -4.260830000000000     11.649390000000000
H       0.795000000000000     -2.627140000000000     12.396520000000001
H       2.965440000000000      0.904120000000000     10.559310000000000
H       3.867110000000000      0.995290000000000     12.122579999999999
H       4.585850000000000      0.120890000000000     10.716699999999999
C       7.152660000000000     -1.978760000000000      9.773009999999999
C       7.129700000000000     -0.129280000000000      8.381010000000000
O       6.343810000000000     -1.098540000000000      9.030799999999999
C       6.249890000000000     -3.017780000000000     10.424410000000000
C       6.197340000000000      0.805210000000000      7.621940000000000
H       7.871450000000000     -2.513230000000000      9.111599999999999
H       7.689410000000000     -1.432700000000000     10.580930000000000
H       7.700340000000000      0.478320000000000      9.119030000000000
H       7.816740000000000     -0.605390000000000      7.645570000000000
H       5.497270000000000      1.297080000000000      8.330750000000000
H       6.783910000000000      1.586040000000000      7.094870000000000
H       5.606960000000000      0.230960000000000      6.875310000000000
H       5.695120000000000     -3.583960000000000      9.645289999999999
H       6.854040000000000     -3.727800000000000     11.026180000000000
H       5.517480000000000     -2.516280000000000     11.090380000000000
Mg      0.171130000000000     -0.500920000000000     18.491040000000002
C      -1.159250000000000     -2.557040000000000     16.390730000000001
C      -1.311570000000000     -0.308100000000000     15.619260000000001
O      -1.411580000000000     -1.200840000000000     16.710899999999999
C       0.243320000000000     -2.820960000000000     15.841030000000000
C      -2.469940000000000     -0.460930000000000     14.642740000000000
H      -1.232380000000000     -3.115520000000000     17.344590000000000
H      -1.949650000000000     -2.982010000000000     15.740410000000001
H      -1.364430000000000      0.718050000000000     16.043379999999999
H      -0.327660000000000     -0.357610000000000     15.110550000000000
H      -3.432460000000000     -0.377480000000000     15.190130000000000
H      -2.414310000000000      0.341540000000000     13.878349999999999
H      -2.417380000000000     -1.439870000000000     14.125560000000000
H       1.006980000000000     -2.345560000000000     16.486650000000001
H       0.425670000000000     -3.915470000000000     15.811940000000000
H       0.343870000000000     -2.433310000000000     14.809329999999999
H       2.709310000000000     -0.123660000000000     17.879110000000001
C       1.816540000000000      1.858930000000000     17.977090000000000
C       1.798780000000000      0.408630000000000     17.535450000000001
C       1.798800000000000      1.950230000000000     19.506589999999999
H       2.729630000000000      2.333090000000000     17.562429999999999
H       0.917470000000000      2.377250000000000     17.575690000000002
H       0.836800000000000      1.548600000000000     19.891660000000002
H       2.626990000000000      1.348800000000000     19.938310000000001
C       1.961570000000000      3.393390000000000     19.965990000000001
H       1.707620000000000      0.327880000000000     16.433019999999999
H       2.944500000000000      3.782540000000000     19.624179999999999
H       1.150760000000000      4.030440000000000     19.553740000000001
H       1.928030000000000      3.438480000000000     21.074760000000001
C      -1.580390000000000      1.412140000000000     21.421900000000001
C      -2.036480000000000      1.438290000000000     20.123629999999999
C      -2.109690000000000      0.128150000000000     19.685099999999998
C      -1.697610000000000     -0.668270000000000     20.676720000000000
N      -1.367550000000000      0.083460000000000     21.822109999999999
C      -1.597840000000000     -2.170020000000000     20.624150000000000
N      -0.524680000000000     -2.611080000000000     19.715019999999999
C       0.758840000000000     -3.033290000000000     20.330269999999999
H      -2.279390000000000      2.328430000000000     19.557390000000002
H      -1.403770000000000      2.276010000000000     22.046430000000001
H      -2.437920000000000     -0.188620000000000     18.707599999999999
H      -2.566350000000000     -2.576660000000000     20.263069999999999
H      -1.448740000000000     -2.548970000000000     21.648720000000001
C       0.563560000000000     -4.296220000000000     21.194929999999999
C       1.733750000000000     -3.391180000000000     19.191970000000001
C       1.396160000000000     -1.900830000000000     21.162990000000001
H       0.087430000000000     -5.100010000000000     20.593689999999999
H       1.543210000000000     -4.666730000000000     21.566279999999999
H      -0.061660000000000     -4.106260000000000     22.087800000000001
H       1.943470000000000     -2.503610000000000     18.561599999999999
H       2.706280000000000     -3.749290000000000     19.597069999999999
H       1.310600000000000     -4.190990000000000     18.546589999999998
H       1.600810000000000     -1.012960000000000     20.527699999999999
H       0.739770000000000     -1.593210000000000     21.999710000000000
H       2.361440000000000     -2.237450000000000     21.600470000000001
