140

Mg     -0.117350000000000     -0.054360000000000      0.771570000000000
H       0.194700000000000     -2.800190000000000      2.035970000000000
C      -1.409720000000000     -3.207430000000000      0.603360000000000
C      -0.725280000000000     -2.329610000000000      1.632760000000000
C      -1.860560000000000     -4.505360000000000      1.264030000000000
H      -2.285820000000000     -2.664100000000000      0.186660000000000
H      -0.696840000000000     -3.418370000000000     -0.223890000000000
H      -0.974800000000000     -5.029480000000000      1.684800000000000
H      -2.566260000000000     -4.269490000000000      2.090480000000000
C      -2.552530000000000     -5.420110000000000      0.265530000000000
H      -1.419480000000000     -2.030780000000000      2.445840000000000
H      -3.451530000000000     -4.920900000000000     -0.154140000000000
H      -1.857040000000000     -5.683790000000000     -0.559320000000000
H      -2.866270000000000     -6.348570000000000      0.783870000000000
C       2.263350000000000      1.345890000000000      2.332720000000000
C       3.011480000000000      2.475060000000000      2.041790000000000
C       2.544050000000000      2.968140000000000      0.833080000000000
C       1.542660000000000      2.113750000000000      0.431420000000000
N       1.376530000000000      1.147250000000000      1.344870000000000
C       0.701430000000000      2.200100000000000     -0.828840000000000
N      -0.130250000000000      0.986540000000000     -0.969120000000000
C      -1.020970000000000      0.804740000000000     -2.129590000000000
H       3.805100000000000      2.896430000000000      2.643210000000000
H       2.361070000000000      0.719180000000000      3.210540000000000
H       2.897000000000000      3.842090000000000      0.303450000000000
H       1.382110000000000      2.282870000000000     -1.696360000000000
H       0.066180000000000      3.105340000000000     -0.746290000000000
C      -0.178660000000000      0.684180000000000     -3.413620000000000
C      -1.819550000000000     -0.499160000000000     -1.947180000000000
C      -2.009670000000000      1.978070000000000     -2.247430000000000
H       0.525030000000000     -0.173270000000000     -3.330800000000000
H      -0.829450000000000      0.522040000000000     -4.298810000000000
H       0.412160000000000      1.604120000000000     -3.596190000000000
H      -2.453060000000000     -0.449860000000000     -1.036040000000000
H      -2.485500000000000     -0.675480000000000     -2.821690000000000
H      -1.136670000000000     -1.370650000000000     -1.855070000000000
H      -2.613120000000000      2.068010000000000     -1.318530000000000
H      -1.474700000000000      2.934280000000000     -2.419460000000000
H      -2.699480000000000      1.821180000000000     -3.104380000000000
Na     -1.576540000000000    -15.202199999999999      1.602750000000000
C      -0.567500000000000    -12.346220000000001      0.573050000000000
C       1.038800000000000    -13.015060000000000      2.146540000000000
O      -0.327880000000000    -13.043369999999999      1.780580000000000
C      -0.428850000000000    -13.277400000000000     -0.627060000000000
C       1.348480000000000    -11.807040000000001      3.026890000000000
H      -1.610680000000000    -11.966120000000000      0.600940000000000
H       0.083480000000000    -11.450590000000000      0.455720000000000
H       1.252510000000000    -13.937230000000000      2.728090000000000
H       1.719240000000000    -13.039330000000000      1.266320000000000
H       0.730080000000000    -11.828080000000000      3.947930000000000
H       2.418210000000000    -11.830270000000001      3.320800000000000
H       1.151260000000000    -10.862430000000000      2.479320000000000
H      -1.134290000000000    -14.129370000000000     -0.534470000000000
H      -0.661840000000000    -12.720060000000000     -1.558060000000000
H       0.605650000000000    -13.670640000000001     -0.698570000000000
C       1.225870000000000    -16.771149999999999      0.536130000000000
C      -0.518760000000000    -18.319420000000001      1.024060000000000
O      -0.048200000000000    -16.985969999999998      1.117300000000000
C       1.265210000000000    -17.016890000000000     -0.973000000000000
C       0.342300000000000    -19.325679999999998      1.787240000000000
H       1.464460000000000    -15.698090000000001      0.691170000000000
H       2.021690000000000    -17.331019999999999      1.068700000000000
H      -1.523560000000000    -18.332360000000001      1.498270000000000
H      -0.685880000000000    -18.628869999999999     -0.028250000000000
H       0.463470000000000    -18.996780000000001      2.840170000000000
H      -0.154700000000000    -20.318169999999999      1.773770000000000
H       1.337460000000000    -19.441289999999999      1.312420000000000
H       0.478050000000000    -16.418920000000000     -1.478650000000000
H       2.257590000000000    -16.711839999999999     -1.366250000000000
H       1.128120000000000    -18.091760000000001     -1.207470000000000
Na     -1.539300000000000    -12.353300000000001      3.740220000000000
C      -3.856220000000000    -14.750859999999999      3.525980000000000
C      -2.060170000000000    -15.362000000000000      4.896530000000000
O      -2.476580000000000    -14.593200000000000      3.786050000000000
C      -4.304480000000000    -13.642849999999999      2.581290000000000
C      -1.850110000000000    -16.828720000000001      4.526570000000000
H      -4.042150000000000    -15.724890000000000      3.024740000000000
H      -4.470760000000000    -14.666250000000000      4.450340000000000
H      -1.081990000000000    -14.953690000000000      5.230010000000000
H      -2.747670000000000    -15.256900000000000      5.764970000000000
H      -1.118550000000000    -16.911020000000001      3.696550000000000
H      -1.455090000000000    -17.378540000000001      5.406430000000000
H      -2.806780000000000    -17.299640000000000      4.221220000000000
H      -3.719980000000000    -13.682210000000000      1.637220000000000
H      -5.381890000000000    -13.763150000000000      2.341490000000000
H      -4.153130000000000    -12.651080000000000      3.056180000000000
C      -3.511080000000000    -10.597820000000000      5.749800000000000
C      -3.178160000000000     -9.412089999999999      3.790150000000000
O      -2.969820000000000    -10.636229999999999      4.451570000000000
C      -3.226870000000000    -11.933980000000000      6.422580000000000
C      -2.597120000000000     -9.527180000000000      2.387670000000000
H      -3.032080000000000     -9.797409999999999      6.357820000000000
H      -4.614780000000000    -10.458390000000000      5.711520000000000
H      -4.265520000000000     -9.192460000000001      3.695530000000000
H      -2.652070000000000     -8.583589999999999      4.315940000000000
H      -3.103290000000000    -10.347619999999999      1.835450000000000
H      -2.744160000000000     -8.577620000000000      1.834390000000000
H      -1.509220000000000     -9.748630000000000      2.442380000000000
H      -2.130560000000000    -12.108520000000000      6.477460000000000
H      -3.646510000000000    -11.943009999999999      7.449740000000000
H      -3.690320000000000    -12.756040000000000      5.838720000000000
Mg      2.146530000000000    -16.531009999999998      6.873960000000000
H       0.284540000000000    -15.740620000000000      9.332530000000000
C       1.615280000000000    -17.167410000000000     10.326359999999999
C       0.848520000000000    -16.669650000000001      9.111400000000000
C       2.626880000000000    -16.139640000000000     10.851680000000000
H       0.879590000000000    -17.391639999999999     11.126849999999999
H       2.146240000000000    -18.107679999999998     10.065939999999999
H       2.104830000000000    -15.196429999999999     11.123400000000000
H       3.089650000000000    -16.559560000000001     11.769810000000000
C       3.747670000000000    -15.832290000000000      9.856560000000000
H       0.155430000000000    -17.455629999999999      8.741899999999999
H       3.346860000000000    -15.339040000000001      8.948130000000001
H       4.480130000000000    -15.144830000000001     10.331860000000001
H       4.278560000000000    -16.764170000000000      9.566400000000000
C       3.164370000000000    -13.588550000000000      6.242120000000000
C       4.190780000000000    -13.120340000000001      5.438270000000000
C       4.809000000000000    -14.230760000000000      4.883630000000000
C       4.147540000000000    -15.328260000000000      5.389300000000000
N       3.151160000000000    -14.930110000000001      6.192090000000000
C       4.433820000000000    -16.793410000000002      5.118620000000000
N       3.653660000000000    -17.630920000000000      6.054400000000000
C       3.773090000000000    -19.099319999999999      6.042230000000000
H       4.458200000000000    -12.085780000000000      5.271120000000000
H       2.475170000000000    -12.986900000000000      6.820190000000000
H       5.650280000000000    -14.236950000000000      4.204140000000000
H       4.161640000000000    -17.007700000000000      4.064310000000000
H       5.513630000000000    -16.972980000000000      5.279420000000000
C       5.202890000000000    -19.509049999999998      6.447150000000000
C       2.790980000000000    -19.676490000000001      7.076980000000000
C       3.429030000000000    -19.668030000000002      4.654700000000000
H       5.448900000000000    -19.099989999999998      7.451930000000000
H       5.300320000000000    -20.615030000000001      6.485440000000000
H       5.953080000000000    -19.131740000000001      5.723140000000000
H       1.744140000000000    -19.406730000000000      6.820500000000000
H       2.866380000000000    -20.786120000000000      7.113160000000000
H       3.014830000000000    -19.282419999999998      8.090949999999999
H       2.398740000000000    -19.374700000000001      4.363550000000000
H       4.136970000000000    -19.298010000000001      3.884870000000000
H       3.492780000000000    -20.777690000000000      4.663440000000000
