170

Mg      0.526040000000000      0.152990000000000     -0.092460000000000
C       1.130720000000000      0.063170000000000      3.044000000000000
C       2.750190000000000     -1.181310000000000      1.812540000000000
O       1.393170000000000     -0.827930000000000      1.976990000000000
C       1.850450000000000      1.406600000000000      2.929910000000000
C       3.231630000000000     -2.103160000000000      2.920420000000000
H       0.049120000000000      0.283940000000000      2.991480000000000
H       1.278400000000000     -0.415960000000000      4.032420000000000
H       2.813840000000000     -1.742540000000000      0.854710000000000
H       3.414860000000000     -0.302950000000000      1.680010000000000
H       2.527270000000000     -2.954840000000000      3.027840000000000
H       4.240010000000000     -2.490660000000000      2.667540000000000
H       3.293890000000000     -1.544580000000000      3.874660000000000
H       1.750730000000000      1.815270000000000      1.904660000000000
H       1.399570000000000      2.124780000000000      3.646320000000000
H       2.923760000000000      1.295920000000000      3.180580000000000
H       1.833510000000000      2.154460000000000     -1.113460000000000
C       2.407490000000000      0.404380000000000     -2.280110000000000
C       2.146940000000000      1.102380000000000     -0.961140000000000
C       1.125060000000000      0.336770000000000     -3.117150000000000
H       3.197000000000000      0.973750000000000     -2.809400000000000
H       2.763170000000000     -0.632520000000000     -2.087020000000000
H       0.388170000000000     -0.325310000000000     -2.616030000000000
H       0.672840000000000      1.345940000000000     -3.217100000000000
C       1.418780000000000     -0.197550000000000     -4.513230000000000
H       3.034310000000000      1.059230000000000     -0.298470000000000
H       2.115670000000000      0.494600000000000     -5.032590000000000
H       1.876570000000000     -1.207860000000000     -4.460590000000000
H       0.477350000000000     -0.257050000000000     -5.098640000000000
C      -1.561950000000000     -2.257750000000000     -2.220830000000000
C      -0.538360000000000     -2.679810000000000     -1.406320000000000
C      -0.736090000000000     -2.112970000000000     -0.159280000000000
C      -1.837200000000000     -1.349220000000000     -0.223360000000000
N      -2.428110000000000     -1.421290000000000     -1.494060000000000
C      -2.399690000000000     -0.504230000000000      0.893170000000000
N      -1.544230000000000      0.660070000000000      1.174970000000000
C      -1.954880000000000      1.977820000000000      0.628430000000000
H       0.281370000000000     -3.323680000000000     -1.704740000000000
H      -1.688200000000000     -2.509330000000000     -3.261980000000000
H      -0.099310000000000     -2.251870000000000      0.696860000000000
H      -2.478080000000000     -1.125620000000000      1.810310000000000
H      -3.422720000000000     -0.199640000000000      0.617640000000000
C      -3.304560000000000      2.419940000000000      1.226970000000000
C      -0.889130000000000      3.009520000000000      1.048160000000000
C      -2.030260000000000      1.966730000000000     -0.913410000000000
H      -3.260270000000000      2.380540000000000      2.336040000000000
H      -3.542210000000000      3.460780000000000      0.918390000000000
H      -4.144130000000000      1.788490000000000      0.879460000000000
H       0.095270000000000      2.760550000000000      0.601590000000000
H      -1.160960000000000      4.032810000000000      0.706440000000000
H      -0.774310000000000      3.029080000000000      2.153320000000000
H      -1.034630000000000      1.756860000000000     -1.358770000000000
H      -2.747210000000000      1.206480000000000     -1.277400000000000
H      -2.371270000000000      2.955410000000000     -1.292170000000000
Na      0.791380000000000     -1.352410000000000     10.493119999999999
C       2.251160000000000     -0.160380000000000      7.909540000000000
C       1.751440000000000     -2.385460000000000      7.363130000000000
O       2.116940000000000     -1.483840000000000      8.390330000000001
C       0.922110000000000      0.583160000000000      7.992270000000000
C       2.984730000000000     -2.979590000000000      6.688310000000000
H       2.985000000000000      0.363770000000000      8.557810000000000
H       2.665140000000000     -0.116980000000000      6.876760000000000
H       1.173380000000000     -3.211890000000000      7.828950000000000
H       1.078240000000000     -1.924260000000000      6.606470000000000
H       3.613130000000000     -3.516180000000000      7.428740000000000
H       2.665770000000000     -3.700700000000000      5.906970000000000
H       3.591630000000000     -2.183010000000000      6.212410000000000
H       0.555170000000000      0.596130000000000      9.039970000000000
H       1.060690000000000      1.629120000000000      7.648550000000000
H       0.161440000000000      0.096260000000000      7.348680000000000
C      -2.056760000000000     -2.012200000000000      8.815849999999999
C      -2.399180000000000     -2.066560000000000     11.174910000000001
O      -1.470510000000000     -2.016030000000000     10.105639999999999
C      -2.926630000000000     -0.785910000000000      8.536640000000000
C      -3.228800000000000     -3.350090000000000     11.204040000000001
H      -1.217370000000000     -1.979920000000000      8.089880000000001
H      -2.594510000000000     -2.958980000000000      8.604469999999999
H      -1.801600000000000     -2.049660000000000     12.111739999999999
H      -3.036350000000000     -1.159070000000000     11.214770000000000
H      -2.559720000000000     -4.235980000000000     11.186010000000000
H      -3.834370000000000     -3.373480000000000     12.134140000000000
H      -3.928570000000000     -3.391340000000000     10.345060000000000
H      -2.350150000000000      0.143570000000000      8.727720000000000
H      -3.245160000000000     -0.799740000000000      7.473080000000000
H      -3.842350000000000     -0.794850000000000      9.161500000000000
Na      4.002220000000000     -2.473790000000000      9.496430000000000
C       2.897850000000000     -1.895690000000000     12.589370000000001
C       2.278740000000000     -4.012140000000000     11.805740000000000
O       2.586380000000000     -2.678220000000000     11.455230000000000
C       3.563900000000000     -0.607010000000000     12.123939999999999
C       0.850030000000000     -4.148560000000000     12.327529999999999
H       1.968190000000000     -1.624310000000000     13.134150000000000
H       3.611740000000000     -2.409630000000000     13.271640000000000
H       2.360630000000000     -4.621570000000000     10.880250000000000
H       3.015100000000000     -4.441180000000000     12.520840000000000
H       0.130540000000000     -3.769310000000000     11.573090000000001
H       0.629660000000000     -5.218420000000000     12.525320000000001
H       0.720420000000000     -3.584870000000000     13.272729999999999
H       2.890880000000000     -0.053360000000000     11.434680000000000
H       3.791890000000000      0.038090000000000     12.998300000000000
H       4.511290000000000     -0.836410000000000     11.592870000000000
C       7.077240000000000     -2.936500000000000     10.649039999999999
C       7.054340000000000     -1.086910000000000      9.256930000000001
O       6.268590000000000     -2.056370000000000      9.906560000000001
C       6.174130000000000     -3.975320000000000     11.300360000000000
C       6.121690000000000     -0.152540000000000      8.497990000000000
H       7.796120000000000     -3.471110000000000      9.987850000000000
H       7.613840000000000     -2.390380000000000     11.457020000000000
H       7.624840000000000     -0.479270000000000      9.995020000000000
H       7.741440000000000     -1.562830000000000      8.521450000000000
H       5.421560000000000      0.339100000000000      9.206899999999999
H       6.707960000000000      0.628510000000000      7.970900000000000
H       5.531330000000000     -0.726840000000000      7.751380000000000
H       5.619490000000000     -4.541550000000000     10.521179999999999
H       6.777900000000000     -4.685330000000000     11.902509999999999
H       5.441550000000000     -3.473570000000000     11.965960000000001
Mg      0.094750000000000     -1.458150000000000     19.368760000000002
C      -1.233910000000000     -3.514030000000000     17.268509999999999
C      -1.385820000000000     -1.265230000000000     16.496320000000001
O      -1.485960000000000     -2.157690000000000     17.588120000000000
C       0.168290000000000     -3.778290000000000     16.718180000000000
C      -2.544160000000000     -1.418410000000000     15.519950000000000
H      -1.306420000000000     -4.071860000000000     18.222709999999999
H      -2.024860000000000     -3.939440000000000     16.619160000000001
H      -1.438800000000000     -0.239030000000000     16.920330000000000
H      -0.401880000000000     -1.314840000000000     15.987629999999999
H      -3.506620000000000     -1.336080000000000     16.067630000000001
H      -2.489330000000000     -0.615440000000000     14.756019999999999
H      -2.490740000000000     -2.397100000000000     15.002390000000000
H       0.932290000000000     -3.301380000000000     17.362320000000000
H       0.351130000000000     -4.872760000000000     16.690980000000000
H       0.267560000000000     -3.392310000000000     15.685710000000000
H       2.631770000000000     -1.082590000000000     18.756029999999999
C       1.739770000000000      0.900450000000000     18.853590000000001
C       1.721560000000000     -0.549890000000000     18.412289999999999
C       1.722010000000000      0.992220000000000     20.383080000000000
H       2.653090000000000      1.373930000000000     18.438770000000002
H       0.840910000000000      1.419070000000000     18.452089999999998
H       0.759480000000000      0.591980000000000     20.768210000000000
H       2.549310000000000      0.389860000000000     20.815180000000002
C       1.886760000000000      2.435310000000000     20.841940000000001
H       1.629950000000000     -0.631050000000000     17.309940000000001
H       2.870340000000000      2.822760000000000     20.500090000000000
H       1.077000000000000      3.073420000000000     20.429259999999999
H       1.853150000000000      2.480940000000000     21.950679999999998
C      -1.654510000000000      0.454140000000000     22.297200000000000
C      -2.111030000000000      0.481000000000000     20.999070000000000
C      -2.185010000000000     -0.828950000000000     20.560189999999999
C      -1.772780000000000     -1.625960000000000     21.551279999999998
N      -1.442240000000000     -0.874720000000000     22.696929999999998
C      -1.672770000000000     -3.127680000000000     21.498139999999999
N      -0.598600000000000     -3.568170000000000     20.589880000000001
C       0.684580000000000     -3.990560000000000     21.205710000000000
H      -2.353410000000000      1.371460000000000     20.433140000000002
H      -1.477040000000000      1.317710000000000     22.921890000000001
H      -2.513530000000000     -1.145090000000000     19.582540000000002
H      -2.640830000000000     -3.534360000000000     21.135850000000001
H      -1.524560000000000     -3.507110000000000     22.522600000000001
C       0.488620000000000     -5.253160000000000     22.070589999999999
C       1.659720000000000     -4.348950000000000     20.067699999999999
C       1.322010000000000     -2.858180000000000     22.038460000000001
H       0.011630000000000     -6.056630000000000     21.469600000000000
H       1.468100000000000     -5.624370000000000     22.441659999999999
H      -0.136060000000000     -5.062420000000000     22.963660000000001
H       1.869970000000000     -3.461510000000000     19.437290000000001
H       2.632010000000000     -4.707450000000000     20.473020000000002
H       1.236370000000000     -5.148530000000000     19.422180000000001
H       1.528410000000000     -1.970880000000000     21.402920000000002
H       0.664880000000000     -2.549410000000000     22.874160000000000
H       2.286410000000000     -3.195510000000000     22.477360000000001
