185

Mg     -0.036210000000000      0.305510000000000     -0.380010000000000
C       3.073050000000000      1.138460000000000      1.013720000000000
C       1.254660000000000      1.293240000000000      2.550330000000000
O       1.731840000000000      0.798060000000000      1.313500000000000
C       4.091530000000000      0.508460000000000      1.959220000000000
C       1.198060000000000      2.817100000000000      2.617790000000000
H       3.276060000000000      0.737910000000000     -0.003020000000000
H       3.221900000000000      2.232530000000000      0.938970000000000
H       0.209660000000000      0.938170000000000      2.648950000000000
H       1.793550000000000      0.850120000000000      3.410580000000000
H       0.649590000000000      3.218790000000000      1.740670000000000
H       0.665750000000000      3.120220000000000      3.543380000000000
H       2.217640000000000      3.248740000000000      2.651570000000000
H       3.948840000000000     -0.589550000000000      2.011600000000000
H       5.113040000000000      0.718460000000000      1.578180000000000
H       4.005890000000000      0.944380000000000      2.974050000000000
H       1.826290000000000      1.529830000000000     -2.348720000000000
C       1.134550000000000      3.362000000000000     -1.358500000000000
C       0.900710000000000      1.983950000000000     -1.938580000000000
C       1.593030000000000      4.302770000000000     -2.459820000000000
H       0.194220000000000      3.737580000000000     -0.904850000000000
H       1.904780000000000      3.298810000000000     -0.565340000000000
H       2.532490000000000      3.910690000000000     -2.906990000000000
H       0.808630000000000      4.351930000000000     -3.246230000000000
C       1.842100000000000      5.697270000000000     -1.908310000000000
H       0.071270000000000      1.976920000000000     -2.675770000000000
H       0.908450000000000      6.106450000000000     -1.466520000000000
H       2.633390000000000      5.664690000000000     -1.129040000000000
H       2.173050000000000      6.358540000000000     -2.734390000000000
C      -1.564290000000000     -4.346960000000000     -0.623440000000000
C      -2.823110000000000     -3.866300000000000     -0.876900000000000
C      -2.994290000000000     -2.708880000000000     -0.126030000000000
C      -1.860350000000000     -2.481130000000000      0.552750000000000
N      -0.928680000000000     -3.497210000000000      0.291710000000000
C      -1.561470000000000     -1.365320000000000      1.536290000000000
N      -1.477140000000000     -0.003850000000000      0.981660000000000
C      -2.634230000000000      0.854950000000000      0.685420000000000
H      -3.541220000000000     -4.326570000000000     -1.543860000000000
H      -1.115220000000000     -5.234170000000000     -1.047400000000000
H      -3.896220000000000     -2.126230000000000     -0.100550000000000
H      -0.547920000000000     -1.581880000000000      1.940740000000000
H      -2.247570000000000     -1.409010000000000      2.400030000000000
C      -3.813160000000000      0.534330000000000      1.607890000000000
C      -2.196270000000000      2.310710000000000      0.937850000000000
C      -3.020170000000000      0.741300000000000     -0.803600000000000
H      -3.489210000000000      0.633920000000000      2.667070000000000
H      -4.653790000000000      1.232410000000000      1.421870000000000
H      -4.173120000000000     -0.497450000000000      1.441270000000000
H      -1.331160000000000      2.572080000000000      0.295580000000000
H      -3.018260000000000      3.023170000000000      0.709380000000000
H      -1.884930000000000      2.454990000000000      1.994240000000000
H      -2.184760000000000      1.075000000000000     -1.458710000000000
H      -3.266390000000000     -0.288310000000000     -1.098060000000000
H      -3.900170000000000      1.382410000000000     -1.024780000000000
C       1.045730000000000     -2.198730000000000     -1.970410000000000
C       2.003730000000000     -2.245050000000000      0.186250000000000
O       1.448620000000000     -1.448150000000000     -0.841440000000000
C      -0.229950000000000     -1.599750000000000     -2.567210000000000
C       3.427390000000000     -2.646130000000000     -0.139000000000000
H       1.848270000000000     -2.143010000000000     -2.733090000000000
H       0.838600000000000     -3.265720000000000     -1.738680000000000
H       2.001350000000000     -1.649700000000000      1.121000000000000
H       1.405080000000000     -3.140390000000000      0.421040000000000
H       4.039270000000000     -1.740970000000000     -0.329560000000000
H       3.849430000000000     -3.208120000000000      0.719560000000000
H       3.430160000000000     -3.297100000000000     -1.036540000000000
H      -1.065970000000000     -1.638710000000000     -1.845330000000000
H      -0.076950000000000     -0.539670000000000     -2.852860000000000
H      -0.527550000000000     -2.170550000000000     -3.470780000000000
Na      0.107240000000000     -1.067260000000000      9.344440000000001
C       1.567880000000000      0.124860000000000      6.763420000000000
C       1.067210000000000     -2.099350000000000      6.213860000000000
O       1.432710000000000     -1.198980000000000      7.242390000000000
C       0.238650000000000      0.868750000000000      6.842150000000000
C       2.300040000000000     -2.691630000000000      5.535710000000000
H       2.300220000000000      0.648880000000000      7.413250000000000
H       1.986240000000000      0.167770000000000      5.733820000000000
H       0.490720000000000     -2.926920000000000      6.679720000000000
H       0.392370000000000     -1.638160000000000      5.458710000000000
H       2.931110000000000     -3.226210000000000      6.275790000000000
H       1.979890000000000     -3.415650000000000      4.757670000000000
H       2.903050000000000     -1.895170000000000      5.052910000000000
H      -0.130100000000000      0.882380000000000      7.889270000000000
H       0.378030000000000      1.914420000000000      6.497700000000000
H      -0.521170000000000      0.381800000000000      6.197600000000000
C      -2.740720000000000     -1.727000000000000      7.666670000000000
C      -3.083160000000000     -1.781300000000000     10.025880000000001
O      -2.154540000000000     -1.730730000000000      8.956530000000001
C      -3.610500000000000     -0.500710000000000      7.387210000000000
C      -3.912730000000000     -3.064870000000000     10.055149999999999
H      -1.901280000000000     -1.694780000000000      6.940730000000000
H      -3.278490000000000     -2.673790000000000      7.455390000000000
H      -2.485540000000000     -1.764400000000000     10.962710000000000
H      -3.720370000000000     -0.873840000000000     10.065780000000000
H      -3.243660000000000     -3.950750000000000     10.037170000000000
H      -4.518250000000000     -3.088240000000000     10.985310000000000
H      -4.612560000000000     -3.106170000000000      9.196220000000000
H      -3.034030000000000      0.428750000000000      7.578400000000000
H      -3.928840000000000     -0.514530000000000      6.323540000000000
H      -4.526230000000000     -0.509640000000000      8.012090000000001
Na      3.318190000000000     -2.188640000000000      8.347619999999999
C       2.213850000000000     -1.610520000000000     11.440659999999999
C       1.594720000000000     -3.726960000000000     10.657019999999999
O       1.902360000000000     -2.393050000000000     10.306509999999999
C       2.879900000000000     -0.321840000000000     10.975230000000000
C       0.166030000000000     -3.863400000000000     11.178839999999999
H       1.284190000000000     -1.339140000000000     11.985440000000001
H       2.927740000000000     -2.124470000000000     12.122920000000001
H       1.676600000000000     -4.336390000000000      9.731520000000000
H       2.331100000000000     -4.156010000000000     11.372100000000000
H      -0.553480000000000     -3.484150000000000     10.424420000000000
H      -0.054330000000000     -4.933260000000000     11.376640000000000
H       0.036440000000000     -3.299710000000000     12.124050000000000
H       2.206890000000000      0.231810000000000     10.285950000000000
H       3.107890000000000      0.323260000000000     11.849589999999999
H       3.827300000000000     -0.551240000000000     10.444170000000000
C       6.393150000000000     -2.651230000000000      9.500220000000001
C       6.370160000000000     -0.801690000000000      8.107900000000001
O       5.584470000000000     -1.771140000000000      8.757660000000000
C       5.490090000000000     -3.690080000000000     10.151610000000000
C       5.437500000000000      0.132640000000000      7.348750000000000
H       7.112070000000000     -3.185870000000000      8.839090000000001
H       6.929740000000000     -2.105080000000000     10.308190000000000
H       6.940630000000000     -0.194000000000000      8.846000000000000
H       7.057350000000000     -1.277640000000000      7.372550000000000
H       4.737370000000000      0.624310000000000      8.057660000000000
H       6.023750000000000      0.913700000000000      6.821670000000000
H       4.847160000000000     -0.441580000000000      6.602050000000000
H       4.935460000000000     -4.256370000000000      9.372470000000000
H       6.093880000000000     -4.400070000000000     10.753790000000000
H       4.757510000000000     -3.188360000000000     10.817220000000001
Mg     -0.589300000000000     -1.172990000000000     18.220150000000000
C      -1.917890000000000     -3.228860000000000     16.119910000000001
C      -2.069790000000000     -0.980060000000000     15.347690000000000
O      -2.169930000000000     -1.872510000000000     16.439499999999999
C      -0.515710000000000     -3.493130000000000     15.569550000000000
C      -3.228120000000000     -1.133250000000000     14.371320000000001
H      -1.990380000000000     -3.786670000000000     17.074120000000001
H      -2.708860000000000     -3.654290000000000     15.470590000000000
H      -2.122770000000000      0.046140000000000     15.771690000000000
H      -1.085850000000000     -1.029680000000000     14.839000000000000
H      -4.190580000000000     -1.050960000000000     14.919010000000000
H      -3.173330000000000     -0.330270000000000     13.607410000000000
H      -3.174680000000000     -2.111940000000000     13.853750000000000
H       0.248310000000000     -3.016170000000000     16.213640000000002
H      -0.332850000000000     -4.587610000000000     15.542420000000000
H      -0.416480000000000     -3.107220000000000     14.537060000000000
H       1.947690000000000     -0.797490000000000     17.607399999999998
C       1.055710000000000      1.185560000000000     17.704940000000001
C       1.037480000000000     -0.264770000000000     17.263649999999998
C       1.037950000000000      1.277350000000000     19.234430000000000
H       1.969040000000000      1.659030000000000     17.290120000000002
H       0.156860000000000      1.704190000000000     17.303429999999999
H       0.075410000000000      0.877160000000000     19.619560000000000
H       1.865220000000000      0.674960000000000     19.666540000000001
C       1.202770000000000      2.720440000000000     19.693280000000001
H       0.945860000000000     -0.345940000000000     16.161310000000000
H       2.186370000000000      3.107830000000000     19.351430000000001
H       0.393050000000000      3.358590000000000     19.280580000000000
H       1.169150000000000      2.766090000000000     20.802019999999999
C      -2.338540000000000      0.739680000000000     21.148409999999998
C      -2.794910000000000      0.766010000000000     19.850629999999999
C      -2.869160000000000     -0.543870000000000     19.411010000000001
C      -2.456630000000000     -1.340460000000000     20.403210000000001
N      -2.126280000000000     -0.590050000000000     21.547950000000000
C      -2.356700000000000     -2.842670000000000     20.349150000000002
N      -1.282670000000000     -3.282960000000000     19.441260000000000
C       0.000670000000000     -3.705420000000000     20.057009999999998
H      -3.037390000000000      1.656680000000000     19.284430000000000
H      -2.160980000000000      1.602780000000000     21.773190000000000
H      -3.197520000000000     -0.859860000000000     18.433949999999999
H      -3.324810000000000     -3.249210000000000     19.987100000000002
H      -2.208590000000000     -3.221970000000000     21.373899999999999
C      -0.195390000000000     -4.967990000000000     20.921910000000000
C       0.975750000000000     -4.063800000000000     18.919039999999999
C       0.638030000000000     -2.573010000000000     20.889769999999999
H      -0.672390000000000     -5.771450000000000     20.320930000000001
H       0.784100000000000     -5.339230000000000     21.292980000000000
H      -0.820040000000000     -4.777220000000000     21.814990000000002
H       1.186030000000000     -3.176370000000000     18.288609999999998
H       1.948040000000000     -4.422330000000000     19.324349999999999
H       0.552400000000000     -4.863380000000000     18.273499999999999
H       0.844510000000000     -1.685750000000000     20.254230000000000
H      -0.019110000000000     -2.264210000000000     21.725439999999999
H       1.602410000000000     -2.910380000000000     21.328730000000000
