155

Mg      0.525950000000000      0.204640000000000     -0.555860000000000
C      -2.542630000000000      0.636720000000000      1.570350000000000
C      -3.180260000000000     -0.313080000000000     -0.432240000000000
O      -2.341880000000000      0.652370000000000      0.170280000000000
C      -1.998550000000000      1.920150000000000      2.179450000000000
C      -2.906070000000000     -0.368300000000000     -1.929260000000000
H      -3.622200000000000      0.590290000000000      1.836190000000000
H      -2.014230000000000     -0.226900000000000      2.024590000000000
H      -3.002300000000000     -1.322690000000000     -0.006050000000000
H      -4.248360000000000     -0.043100000000000     -0.292930000000000
H      -1.855970000000000     -0.665770000000000     -2.124310000000000
H      -3.578430000000000     -1.112950000000000     -2.405610000000000
H      -3.091000000000000      0.626530000000000     -2.385140000000000
H      -2.509350000000000      2.801170000000000      1.740830000000000
H      -2.150180000000000      1.909330000000000      3.278760000000000
H      -0.921040000000000      2.018300000000000      1.986310000000000
H      -0.820280000000000      1.528740000000000     -3.123160000000000
C       1.181040000000000      0.659310000000000     -3.441530000000000
C       0.179860000000000      1.492080000000000     -2.649440000000000
C       0.697740000000000     -0.785450000000000     -3.630760000000000
H       1.318170000000000      1.145480000000000     -4.428310000000000
H       2.154270000000000      0.647560000000000     -2.901570000000000
H       0.618150000000000     -1.298380000000000     -2.646570000000000
H      -0.302800000000000     -0.786620000000000     -4.113180000000000
C       1.661780000000000     -1.566340000000000     -4.521270000000000
H       0.568680000000000      2.510480000000000     -2.445100000000000
H       1.736640000000000     -1.077560000000000     -5.516350000000000
H       2.671740000000000     -1.610970000000000     -4.061150000000000
H       1.288970000000000     -2.602450000000000     -4.666050000000000
C      -0.809880000000000     -2.634230000000000     -0.151780000000000
C      -0.915990000000000     -3.434890000000000      0.971690000000000
C      -0.264490000000000     -2.769230000000000      1.999750000000000
C       0.196530000000000     -1.588050000000000      1.466620000000000
N      -0.148540000000000     -1.516410000000000      0.173850000000000
C       1.003160000000000     -0.499760000000000      2.152330000000000
N       1.026410000000000      0.736150000000000      1.335950000000000
C       2.052160000000000      1.762840000000000      1.608260000000000
H      -1.409940000000000     -4.393540000000000      1.032640000000000
H      -1.208010000000000     -2.853050000000000     -1.136590000000000
H      -0.148430000000000     -3.101320000000000      3.021980000000000
H       0.542760000000000     -0.261940000000000      3.132330000000000
H       2.021990000000000     -0.906870000000000      2.302520000000000
C       3.443690000000000      1.289440000000000      1.151690000000000
C       1.691950000000000      3.038860000000000      0.820200000000000
C       2.068980000000000      2.107180000000000      3.110940000000000
H       3.448270000000000      1.090830000000000      0.058220000000000
H       4.203400000000000      2.072610000000000      1.367570000000000
H       3.755650000000000      0.367920000000000      1.680460000000000
H       0.698930000000000      3.434860000000000      1.119540000000000
H       2.444230000000000      3.836930000000000      1.003740000000000
H       1.667350000000000      2.834460000000000     -0.270450000000000
H       1.058940000000000      2.435600000000000      3.440090000000000
H       2.364690000000000      1.225530000000000      3.716330000000000
H       2.790220000000000      2.924350000000000      3.322900000000000
Na     -0.826970000000000      8.526960000000001     -3.620120000000000
C       0.664890000000000      9.735360000000000     -1.070340000000000
C       1.387710000000000      7.509230000000000     -1.229770000000000
O       0.315420000000000      8.411390000000001     -1.425450000000000
C       1.259210000000000     10.478990000000000     -2.262440000000000
C       1.361010000000000      6.916630000000000      0.176730000000000
H      -0.263270000000000     10.260400000000001     -0.760130000000000
H       1.350930000000000      9.778689999999999     -0.194640000000000
H       1.271280000000000      6.681430000000000     -1.961530000000000
H       2.378830000000000      7.969780000000000     -1.438440000000000
H       0.407650000000000      6.376940000000000      0.354740000000000
H       2.199350000000000      6.198550000000000      0.286560000000000
H       1.475280000000000      7.712990000000000      0.940550000000000
H       0.535970000000000     10.494280000000000     -3.104520000000000
H       1.489480000000000     11.524459999999999     -1.969580000000000
H       2.196350000000000      9.991050000000000     -2.599530000000000
C       2.041230000000000      7.884730000000000     -5.249290000000000
C       0.170230000000000      7.829720000000000     -6.725650000000000
O       0.631500000000000      7.880740000000000     -5.386980000000000
C       2.717690000000000      9.109970000000001     -5.865180000000000
C       0.562110000000000      6.546740000000000     -7.458630000000000
H       2.249390000000000      7.918990000000000     -4.159340000000000
H       2.493010000000000      6.937040000000000     -5.607240000000000
H      -0.939730000000000      7.844330000000000     -6.675770000000000
H       0.452080000000000      8.738320000000000     -7.296950000000000
H       0.246080000000000      5.660280000000000     -6.869370000000000
H       0.058320000000000      6.521410000000000     -8.447480000000001
H       1.655710000000000      6.508310000000000     -7.636510000000000
H       2.262640000000000     10.040200000000000     -5.464500000000000
H       3.797670000000000      9.097170000000000     -5.607890000000000
H       2.635520000000000      9.098000000000001     -6.970700000000000
Na     -1.581640000000000      7.432690000000000     -0.345850000000000
C      -3.701050000000000      8.001620000000001     -2.845140000000000
C      -2.711400000000000      5.884670000000000     -2.989430000000000
O      -2.562330000000000      7.219490000000000     -2.549340000000000
C      -3.631870000000000      9.291330000000000     -2.036310000000000
C      -2.453870000000000      5.745740000000000     -4.488540000000000
H      -3.709030000000000      8.272869999999999     -3.922510000000000
H      -4.648140000000000      7.486860000000000     -2.567130000000000
H      -1.947870000000000      5.276890000000000     -2.457860000000000
H      -3.697150000000000      5.454420000000000     -2.705460000000000
H      -1.442100000000000      6.125990000000000     -4.738780000000000
H      -2.512820000000000      4.674780000000000     -4.775050000000000
H      -3.211900000000000      6.305500000000000     -5.073440000000000
H      -2.699450000000000      9.846640000000001     -2.274760000000000
H      -4.503830000000000      9.934850000000001     -2.276380000000000
H      -3.646310000000000      9.063060000000000     -0.950130000000000
C      -4.111890000000000      6.956780000000000      1.740390000000000
C      -2.895630000000000      8.807900000000000      2.416390000000000
O      -3.064680000000000      7.837270000000000      1.412160000000000
C      -4.222810000000000      5.918040000000000      0.632110000000000
C      -1.772410000000000      9.742310000000000      1.986740000000000
H      -3.899350000000000      6.422140000000000      2.693610000000000
H      -5.080080000000000      7.502770000000000      1.800210000000000
H      -3.820260000000000      9.415380000000001      2.540790000000000
H      -2.601910000000000      8.333080000000001      3.379580000000000
H      -2.036720000000000     10.233169999999999      1.025630000000000
H      -1.608430000000000     10.524139999999999      2.757060000000000
H      -0.830660000000000      9.167970000000000      1.848700000000000
H      -3.270710000000000      5.351530000000000      0.542220000000000
H      -5.046620000000000      5.208030000000000      0.852070000000000
H      -4.431650000000000      6.420520000000000     -0.335070000000000
Mg     -1.870810000000000     15.981590000000001     -4.331600000000000
H       0.979760000000000     17.102820000000001     -4.085450000000000
C       0.066060000000000     17.902870000000000     -2.256970000000000
C       0.041570000000000     17.587119999999999     -3.746540000000000
C       0.132780000000000     16.651240000000001     -1.366340000000000
H       0.928570000000000     18.569550000000000     -2.048460000000000
H      -0.869500000000000     18.447389999999999     -2.004010000000000
H       0.150330000000000     16.990970000000001     -0.307810000000000
H      -0.775280000000000     16.028810000000000     -1.513100000000000
C       1.367240000000000     15.786080000000000     -1.616210000000000
H      -0.137150000000000     18.504300000000001     -4.344020000000000
H       1.338010000000000     15.344930000000000     -2.634150000000000
H       2.293060000000000     16.386569999999999     -1.496350000000000
H       1.384570000000000     14.949859999999999     -0.885400000000000
C      -3.571950000000000     15.051560000000000     -1.815910000000000
C      -4.429220000000000     13.979450000000000     -1.630130000000000
C      -4.443630000000000     13.263350000000001     -2.817480000000000
C      -3.580180000000000     13.916410000000001     -3.668700000000000
N      -3.072870000000000     14.997930000000000     -3.060910000000000
C      -3.220110000000000     13.543210000000000     -5.094560000000000
N      -2.079200000000000     14.365090000000000     -5.551870000000000
C      -1.517100000000000     14.197640000000000     -6.903920000000000
H      -4.986280000000000     13.747350000000001     -0.732810000000000
H      -3.336200000000000     15.818890000000000     -1.089520000000000
H      -5.008000000000000     12.366320000000000     -3.031150000000000
H      -4.116540000000000     13.713120000000000     -5.725980000000000
H      -2.932900000000000     12.474990000000000     -5.114880000000000
C      -2.595960000000000     14.405239999999999     -7.982240000000000
C      -0.404790000000000     15.243380000000000     -7.104770000000000
C      -0.896430000000000     12.792830000000000     -7.034580000000000
H      -3.045490000000000     15.417130000000000     -7.890790000000000
H      -2.153830000000000     14.304990000000000     -8.997220000000000
H      -3.400910000000000     13.647180000000001     -7.893550000000000
H       0.389920000000000     15.127150000000000     -6.336510000000000
H       0.063460000000000     15.129110000000001     -8.108000000000001
H      -0.813980000000000     16.273650000000000     -7.029040000000000
H      -0.112980000000000     12.646390000000000     -6.258610000000000
H      -1.661770000000000     12.000000000000000     -6.911220000000000
H      -0.430780000000000     12.657959999999999     -8.033939999999999
