155

Mg      0.472130000000000      0.099180000000000     -0.620140000000000
C      -0.465220000000000     -0.815160000000000      2.902400000000000
C       0.730700000000000      1.155920000000000      2.963020000000000
O       0.640000000000000     -0.119100000000000      2.359430000000000
C      -0.332190000000000     -2.300730000000000      2.603220000000000
C       1.861140000000000      1.948900000000000      2.320570000000000
H      -0.516890000000000     -0.716450000000000      4.009610000000000
H      -1.410410000000000     -0.443850000000000      2.455180000000000
H      -0.212740000000000      1.727880000000000      2.839050000000000
H       0.957220000000000      1.059240000000000      4.045830000000000
H       1.667510000000000      2.101420000000000      1.239620000000000
H       1.945020000000000      2.943220000000000      2.808170000000000
H       2.821550000000000      1.406440000000000      2.443090000000000
H       0.606190000000000     -2.699250000000000      3.039030000000000
H      -1.201100000000000     -2.847350000000000      3.023660000000000
H      -0.309490000000000     -2.481440000000000      1.519420000000000
H       3.526490000000000      0.631110000000000      0.115630000000000
C       2.944720000000000      1.142400000000000     -1.948680000000000
C       2.947900000000000      0.221080000000000     -0.734740000000000
C       2.369910000000000      2.525410000000000     -1.612450000000000
H       3.991620000000000      1.241860000000000     -2.299430000000000
H       2.331350000000000      0.681510000000000     -2.755020000000000
H       1.300120000000000      2.438250000000000     -1.319200000000000
H       2.934490000000000      2.971110000000000     -0.766020000000000
C       2.481490000000000      3.463650000000000     -2.812070000000000
H       3.287140000000000     -0.800820000000000     -1.000400000000000
H       3.547410000000000      3.577120000000000     -3.104700000000000
H       1.907660000000000      3.065500000000000     -3.675730000000000
H       2.081080000000000      4.465320000000000     -2.548020000000000
C      -1.216580000000000      2.475900000000000      0.607370000000000
C      -2.556110000000000      2.556880000000000      0.944440000000000
C      -3.126580000000000      1.337250000000000      0.610490000000000
C      -2.112290000000000      0.560900000000000      0.100120000000000
N      -0.966910000000000      1.256210000000000      0.114480000000000
C      -2.195700000000000     -0.853860000000000     -0.444850000000000
N      -0.845120000000000     -1.442450000000000     -0.599720000000000
C      -0.667620000000000     -2.626890000000000     -1.463620000000000
H      -3.057950000000000      3.407690000000000      1.381470000000000
H      -0.474150000000000      3.256450000000000      0.733230000000000
H      -4.159700000000000      1.044100000000000      0.734680000000000
H      -2.773160000000000     -1.486370000000000      0.258970000000000
H      -2.724510000000000     -0.789150000000000     -1.415660000000000
C      -0.808590000000000     -2.253420000000000     -2.950080000000000
C       0.750030000000000     -3.191640000000000     -1.238180000000000
C      -1.691240000000000     -3.715550000000000     -1.084710000000000
H      -0.037500000000000     -1.507070000000000     -3.239150000000000
H      -0.675570000000000     -3.156850000000000     -3.585070000000000
H      -1.808770000000000     -1.833780000000000     -3.172870000000000
H       0.903670000000000     -3.489980000000000     -0.180000000000000
H       0.922060000000000     -4.090340000000000     -1.871180000000000
H       1.519840000000000     -2.435640000000000     -1.498820000000000
H      -1.594520000000000     -3.975540000000000     -0.007760000000000
H      -2.728140000000000     -3.366310000000000     -1.268840000000000
H      -1.530100000000000     -4.635020000000000     -1.685040000000000
Na     -1.034510000000000     -9.406560000000001      6.976350000000000
C       0.978270000000000    -11.656739999999999      8.011419999999999
C       0.655650000000000    -12.099990000000000      5.730030000000000
O       0.070410000000000    -11.623430000000001      6.926990000000000
C       1.766240000000000    -10.353610000000000      8.100529999999999
C       0.455870000000000    -13.605880000000001      5.579680000000000
H       0.388460000000000    -11.771269999999999      8.945550000000001
H       1.664570000000000    -12.532320000000000      7.971090000000000
H       0.150060000000000    -11.592660000000000      4.880660000000000
H       1.734550000000000    -11.840909999999999      5.647930000000000
H      -0.625290000000000    -13.856100000000000      5.571460000000000
H       0.902960000000000    -13.942050000000000      4.621250000000000
H       0.947930000000000    -14.151490000000001      6.411030000000000
H       1.073690000000000     -9.493830000000001      8.216630000000000
H       2.442760000000000    -10.389130000000000      8.979590000000000
H       2.378730000000000    -10.203889999999999      7.188270000000000
C       1.172440000000000     -8.159430000000000      4.768700000000000
C      -0.618820000000000     -6.636710000000000      5.162860000000000
O      -0.105060000000000     -7.944980000000000      5.341590000000000
C       2.276200000000000     -7.297580000000000      5.383030000000000
C      -0.866690000000000     -6.272550000000000      3.699390000000000
H       1.437420000000000     -9.216450000000000      4.981000000000000
H       1.147300000000000     -8.076680000000000      3.662820000000000
H      -1.607300000000000     -6.616100000000000      5.670110000000000
H      -0.003990000000000     -5.873800000000000      5.683600000000000
H      -1.502930000000000     -7.045550000000000      3.220710000000000
H      -1.388600000000000     -5.294790000000000      3.649060000000000
H       0.088500000000000     -6.174540000000000      3.145070000000000
H       2.292930000000000     -7.426230000000000      6.485830000000000
H       3.257080000000000     -7.612240000000000      4.969000000000000
H       2.133420000000000     -6.227110000000000      5.132350000000000
Na     -1.996780000000000    -12.800879999999999      7.176130000000000
C      -3.803110000000000    -10.120699999999999      7.958550000000000
C      -3.837070000000000    -10.567650000000000      5.660520000000000
O      -3.100040000000000    -10.668170000000000      6.862260000000000
C      -3.135740000000000    -10.584650000000000      9.247550000000000
C      -3.751840000000000     -9.168580000000000      5.053600000000000
H      -3.754720000000000     -9.011160000000000      7.927750000000000
H      -4.861980000000000    -10.462520000000000      7.992340000000000
H      -3.382360000000000    -11.277820000000000      4.936810000000000
H      -4.893720000000000    -10.892130000000000      5.785590000000000
H      -2.691460000000000     -8.890639999999999      4.882610000000000
H      -4.284800000000000     -9.156100000000000      4.079740000000000
H      -4.225330000000000     -8.419219999999999      5.720230000000000
H      -2.069780000000000    -10.271490000000000      9.263489999999999
H      -3.653320000000000    -10.139469999999999     10.123220000000000
H      -3.186060000000000    -11.690569999999999      9.328279999999999
C      -4.358170000000000    -14.788650000000001      8.382330000000000
C      -2.423120000000000    -15.050640000000000      9.627000000000001
O      -3.053760000000000    -14.312550000000000      8.608890000000001
C      -4.972060000000000    -13.970150000000000      7.254250000000000
C      -1.032950000000000    -14.467269999999999      9.842090000000001
H      -4.343550000000000    -15.855880000000001      8.065320000000000
H      -4.988940000000000    -14.653919999999999      9.289500000000000
H      -2.984400000000000    -14.965320000000000     10.584669999999999
H      -2.308970000000000    -16.117300000000000      9.329260000000000
H      -1.113750000000000    -13.400259999999999     10.141190000000000
H      -0.502230000000000    -15.025840000000001     10.640750000000001
H      -0.442710000000000    -14.532159999999999      8.902300000000000
H      -4.366070000000000    -14.079820000000000      6.328940000000000
H      -6.007840000000000    -14.312290000000001      7.051030000000000
H      -4.998250000000000    -12.897720000000000      7.538090000000000
Mg     -2.955630000000000    -11.316700000000001      1.008810000000000
H      -5.766620000000000    -12.652979999999999      1.526120000000000
C      -6.001770000000000    -12.131650000000000     -0.589400000000000
C      -5.458880000000000    -11.868380000000000      0.805580000000000
C      -5.543910000000000    -13.479170000000000     -1.164670000000000
H      -7.110150000000000    -12.122920000000001     -0.530890000000000
H      -5.681020000000000    -11.313150000000000     -1.268430000000000
H      -5.868390000000000    -14.308560000000000     -0.499200000000000
H      -6.039190000000000    -13.607870000000000     -2.150170000000000
C      -4.031850000000000    -13.565189999999999     -1.383390000000000
H      -5.785600000000000    -10.869360000000000      1.166790000000000
H      -3.488380000000000    -13.531730000000000     -0.417640000000000
H      -3.790460000000000    -14.526990000000000     -1.885480000000000
H      -3.682170000000000    -12.734380000000000     -2.032880000000000
C      -1.207230000000000    -13.840700000000000      1.829150000000000
C       0.139880000000000    -14.119759999999999      1.665320000000000
C       0.699170000000000    -13.037140000000001      1.003790000000000
C      -0.332870000000000    -12.154780000000001      0.773910000000000
N      -1.471230000000000    -12.640990000000000      1.288040000000000
C      -0.269930000000000    -10.813630000000000      0.068100000000000
N      -1.640420000000000    -10.320919999999999     -0.185560000000000
C      -1.871010000000000     -9.056450000000000     -0.906530000000000
H       0.659050000000000    -15.009770000000000      1.993720000000000
H      -1.939790000000000    -14.472930000000000      2.314290000000000
H       1.733330000000000    -12.914249999999999      0.712140000000000
H       0.295030000000000    -10.112310000000001      0.716570000000000
H       0.254420000000000    -10.951650000000001     -0.896060000000000
C      -1.368070000000000     -9.186890000000000     -2.357890000000000
C      -3.384930000000000     -8.780609999999999     -0.941010000000000
C      -1.165800000000000     -7.884570000000000     -0.201940000000000
H      -1.883280000000000    -10.030910000000000     -2.867580000000000
H      -1.568500000000000     -8.256220000000001     -2.930350000000000
H      -0.275670000000000     -9.372439999999999     -2.393490000000000
H      -3.790480000000000     -8.672879999999999      0.087680000000000
H      -3.599710000000000     -7.842580000000000     -1.500180000000000
H      -3.923120000000000     -9.611940000000001     -1.443710000000000
H      -1.529220000000000     -7.788510000000000      0.842530000000000
H      -0.066320000000000     -8.031020000000000     -0.186460000000000
H      -1.369240000000000     -6.932590000000000     -0.736470000000000
