110

Mg     -0.293570000000000      0.400680000000000      0.667590000000000
C       0.967300000000000     -2.471850000000000     -1.401700000000000
C      -1.337740000000000     -2.549890000000000     -1.387800000000000
O      -0.188010000000000     -2.306070000000000     -0.602490000000000
C       2.186990000000000     -2.641660000000000     -0.508660000000000
C      -2.589540000000000     -2.285070000000000     -0.561600000000000
H       0.907660000000000     -3.383840000000000     -2.036540000000000
H       1.118490000000000     -1.582580000000000     -2.047870000000000
H      -1.361670000000000     -1.891100000000000     -2.281120000000000
H      -1.366970000000000     -3.609910000000000     -1.717390000000000
H      -2.624840000000000     -1.226950000000000     -0.232420000000000
H      -3.492640000000000     -2.495140000000000     -1.172930000000000
H      -2.599820000000000     -2.942640000000000      0.332410000000000
H       2.061080000000000     -3.524330000000000      0.150320000000000
H       3.096390000000000     -2.767820000000000     -1.132060000000000
H       2.331670000000000     -1.757690000000000      0.128130000000000
H      -2.284060000000000     -1.426710000000000      2.363530000000000
C      -2.431130000000000      0.742010000000000      2.733620000000000
C      -1.637810000000000     -0.543080000000000      2.529710000000000
C      -3.343450000000000      1.043900000000000      1.536950000000000
H      -3.037970000000000      0.622030000000000      3.652170000000000
H      -1.724310000000000      1.590090000000000      2.873970000000000
H      -2.734000000000000      1.230800000000000      0.624940000000000
H      -4.012020000000000      0.177590000000000      1.345940000000000
C      -4.211580000000000      2.269060000000000      1.814350000000000
H      -0.922120000000000     -0.714870000000000      3.359260000000000
H      -4.842440000000000      2.089160000000000      2.711270000000000
H      -3.579770000000000      3.166030000000000      1.987710000000000
H      -4.879040000000000      2.464160000000000      0.948420000000000
C      -1.506880000000000      0.663240000000000     -2.242290000000000
C      -0.907040000000000      0.971630000000000     -3.450370000000000
C       0.434410000000000      1.203110000000000     -3.183160000000000
C       0.599230000000000      1.011870000000000     -1.830960000000000
N      -0.575280000000000      0.677180000000000     -1.280240000000000
C       1.866200000000000      1.166520000000000     -1.008470000000000
N       1.700130000000000      0.569250000000000      0.336950000000000
C       2.637280000000000      0.944090000000000      1.414870000000000
H      -1.392830000000000      1.023090000000000     -4.413810000000000
H      -2.553910000000000      0.427800000000000     -2.086360000000000
H       1.204850000000000      1.469600000000000     -3.893040000000000
H       2.702680000000000      0.648630000000000     -1.519340000000000
H       2.074740000000000      2.252380000000000     -0.948020000000000
C       2.384800000000000      2.385780000000000      1.890610000000000
C       2.416910000000000     -0.006210000000000      2.609780000000000
C       4.091840000000000      0.786320000000000      0.928740000000000
H       1.352910000000000      2.488950000000000      2.290260000000000
H       3.100810000000000      2.652080000000000      2.698970000000000
H       2.521570000000000      3.116570000000000      1.070020000000000
H       2.598270000000000     -1.063730000000000      2.325050000000000
H       3.109030000000000      0.242670000000000      3.444630000000000
H       1.377300000000000      0.075260000000000      2.989960000000000
H       4.266430000000000     -0.252620000000000      0.573020000000000
H       4.308210000000000      1.483150000000000      0.092770000000000
H       4.809720000000000      1.002240000000000      1.747800000000000
Na     -6.984490000000000     -9.853770000000001      1.247010000000000
C      -5.802270000000000     -7.477430000000000      3.172370000000000
C      -8.105270000000001     -7.438480000000000      3.173430000000000
O      -6.954260000000000     -7.468890000000000      2.356940000000000
C      -4.564120000000000     -7.496430000000000      2.287550000000000
C      -9.344030000000000     -7.445130000000000      2.289060000000000
H      -5.755620000000000     -6.559650000000000      3.799860000000000
H      -5.777600000000000     -8.388809999999999      3.812160000000000
H      -8.150910000000000     -8.339480000000000      3.827010000000000
H      -8.129790000000000     -6.508970000000000      3.786970000000000
H      -9.363540000000000     -8.364190000000001      1.665380000000000
H     -10.256869999999999     -7.421610000000000      2.921340000000000
H      -9.344320000000000     -6.554950000000000      1.624740000000000
H      -4.544610000000000     -6.595860000000000      1.637600000000000
H      -3.651140000000000     -7.502250000000000      2.920080000000000
H      -4.564400000000000     -8.405609999999999      1.649430000000000
Na     -6.926310000000000     -5.076870000000000      1.249950000000000
Mg     -8.471819999999999     -1.036530000000000      6.315720000000000
H      -9.253690000000001      1.510850000000000      7.874660000000000
C      -7.509550000000000      0.850230000000000      9.016010000000000
C      -8.792730000000001      0.575630000000000      8.253869999999999
C      -7.814440000000000      1.705940000000000     10.242179999999999
H      -7.057680000000000     -0.117010000000000      9.326520000000000
H      -6.796060000000000      1.375750000000000      8.344049999999999
H      -8.275330000000000      2.663820000000000      9.916150000000000
H      -8.532190000000000      1.165760000000000     10.897700000000000
C      -6.550040000000000      2.007500000000000     11.033140000000000
H      -9.513350000000001     -0.005760000000000      8.866320000000000
H      -6.082620000000000      1.063430000000000     11.385280000000000
H      -5.825870000000000      2.564340000000000     10.401300000000001
H      -6.812490000000000      2.629770000000000     11.913760000000000
C     -10.663090000000000     -0.764030000000000      4.040510000000000
C     -10.731350000000001     -1.286450000000000      2.759520000000000
C      -9.574280000000000     -2.025380000000000      2.562060000000000
C      -8.843270000000000     -1.910090000000000      3.723730000000000
N      -9.512430000000000     -1.158400000000000      4.608620000000000
C      -7.488120000000000     -2.521490000000000      4.033130000000000
N      -6.986090000000000     -2.004480000000000      5.324200000000000
C      -5.676430000000000     -2.418010000000000      5.857770000000000
H     -11.535100000000000     -1.148500000000000      2.049170000000000
H     -11.407240000000000     -0.142250000000000      4.521960000000000
H      -9.294570000000000     -2.573990000000000      1.673400000000000
H      -6.786330000000000     -2.239980000000000      3.225320000000000
H      -7.612690000000000     -3.623140000000000      4.068950000000000
C      -4.555260000000000     -1.919890000000000      4.926430000000000
C      -5.481680000000000     -1.774570000000000      7.242870000000000
C      -5.607870000000000     -3.947330000000000      6.007390000000000
H      -4.606500000000000     -0.813810000000000      4.830190000000000
H      -3.556530000000000     -2.192840000000000      5.328920000000000
H      -4.642710000000000     -2.363520000000000      3.914090000000000
H      -6.268680000000000     -2.114810000000000      7.949300000000000
H      -4.491300000000000     -2.051950000000000      7.668220000000000
H      -5.527840000000000     -0.666580000000000      7.172830000000000
H      -6.419870000000000     -4.306250000000000      6.675910000000000
H      -5.709890000000000     -4.445790000000000      5.022970000000000
H      -4.631020000000000     -4.253250000000000      6.439780000000000
