155

Mg      0.713020000000000      0.403190000000000      0.092580000000000
C      -2.979110000000000      0.052240000000000     -0.582640000000000
C      -1.879250000000000      0.103860000000000     -2.609170000000000
O      -1.930850000000000      0.661280000000000     -1.311300000000000
C      -3.329350000000000      0.910800000000000      0.623220000000000
C      -0.695650000000000      0.685820000000000     -3.370550000000000
H      -3.908240000000000     -0.041100000000000     -1.188000000000000
H      -2.667570000000000     -0.952100000000000     -0.228130000000000
H      -1.761210000000000     -0.999500000000000     -2.568630000000000
H      -2.801640000000000      0.350790000000000     -3.176300000000000
H       0.257060000000000      0.441590000000000     -2.858760000000000
H      -0.665000000000000      0.260920000000000     -4.396220000000000
H      -0.795970000000000      1.788860000000000     -3.441210000000000
H      -3.644090000000000      1.922430000000000      0.296270000000000
H      -4.148180000000000      0.433750000000000      1.200730000000000
H      -2.462340000000000      1.020940000000000      1.289900000000000
H       1.066090000000000      2.796520000000000     -2.002790000000000
C       2.926190000000000      2.030590000000000     -1.102640000000000
C       1.476840000000000      2.491990000000000     -1.020410000000000
C       3.089090000000000      0.840890000000000     -2.058260000000000
H       3.535010000000000      2.888010000000000     -1.454330000000000
H       3.270670000000000      1.729570000000000     -0.087980000000000
H       2.528480000000000     -0.040860000000000     -1.675650000000000
H       2.690870000000000      1.106750000000000     -3.060500000000000
C       4.561350000000000      0.465820000000000     -2.209020000000000
H       1.350840000000000      3.290160000000000     -0.262280000000000
H       5.131880000000000      1.330980000000000     -2.609760000000000
H       4.992120000000000      0.167920000000000     -1.229480000000000
H       4.664860000000000     -0.382730000000000     -2.917960000000000
C       0.248560000000000     -2.244770000000000     -1.573570000000000
C      -0.342710000000000     -3.447000000000000     -1.224620000000000
C      -0.723050000000000     -3.331180000000000      0.104190000000000
C      -0.365290000000000     -2.065430000000000      0.504670000000000
N       0.212150000000000     -1.420580000000000     -0.522320000000000
C      -0.528170000000000     -1.428810000000000      1.871910000000000
N      -0.308940000000000      0.034870000000000      1.805770000000000
C      -0.029760000000000      0.781890000000000      3.048270000000000
H      -0.477810000000000     -4.306210000000000     -1.864040000000000
H       0.662970000000000     -1.992260000000000     -2.544620000000000
H      -1.215230000000000     -4.081190000000000      0.709290000000000
H      -1.558000000000000     -1.610330000000000      2.241490000000000
H       0.204520000000000     -1.920610000000000      2.541450000000000
C       1.383900000000000      0.473100000000000      3.572250000000000
C      -0.114780000000000      2.291920000000000      2.743700000000000
C      -1.085550000000000      0.440800000000000      4.119050000000000
H       2.149480000000000      0.765830000000000      2.821660000000000
H       1.577070000000000      1.041620000000000      4.508420000000000
H       1.507640000000000     -0.602770000000000      3.803320000000000
H      -1.121860000000000      2.574050000000000      2.371480000000000
H       0.087130000000000      2.891080000000000      3.659180000000000
H       0.630680000000000      2.580400000000000      1.973590000000000
H      -2.106190000000000      0.652920000000000      3.732140000000000
H      -1.033820000000000     -0.631500000000000      4.399690000000000
H      -0.926840000000000      1.042390000000000      5.038710000000000
Na      0.515690000000000      8.357410000000000     -7.305180000000000
C       2.202110000000000     11.058880000000000     -7.539390000000000
C       0.757060000000000     11.059939999999999     -9.387359999999999
O       1.536800000000000     10.271780000000000     -8.508250000000000
C       1.333240000000000     11.242470000000001     -6.299070000000000
C       1.569020000000000     11.496390000000000    -10.604329999999999
H       3.126450000000000     10.520650000000000     -7.240580000000000
H       2.534240000000000     12.043290000000001     -7.939460000000000
H      -0.092220000000000     10.435280000000001     -9.737670000000000
H       0.304690000000000     11.943450000000000     -8.884589999999999
H       1.947820000000000     10.611760000000000    -11.157000000000000
H       0.921830000000000     12.086880000000001    -11.286020000000001
H       2.428680000000000     12.126620000000001    -10.296720000000001
H       1.069830000000000     10.254980000000000     -5.865640000000000
H       1.890670000000000     11.829319999999999     -5.539730000000000
H       0.400590000000000     11.786370000000000     -6.552680000000000
C      -2.422020000000000      9.977390000000000     -7.052770000000000
C      -2.617550000000000      7.704070000000000     -6.362410000000000
O      -1.822040000000000      8.695880000000001     -6.987740000000000
C      -2.690860000000000     10.602900000000000     -5.683600000000000
C      -3.918590000000000      7.404820000000000     -7.107230000000000
H      -1.694240000000000     10.638280000000000     -7.568580000000000
H      -3.327180000000000      9.976710000000001     -7.693890000000000
H      -2.018770000000000      6.768110000000000     -6.374000000000000
H      -2.793950000000000      7.928330000000000     -5.290060000000000
H      -3.702110000000000      7.163650000000000     -8.169230000000001
H      -4.419650000000000      6.534530000000000     -6.634170000000000
H      -4.615460000000000      8.265340000000000     -7.052730000000000
H      -1.759560000000000     10.615259999999999     -5.079070000000000
H      -3.043940000000000     11.646240000000001     -5.823170000000000
H      -3.483530000000000     10.049910000000001     -5.140510000000000
Na      2.870210000000000      8.850230000000000     -9.899580000000000
C       2.303870000000000      6.073580000000000     -8.153180000000001
C       0.784460000000000      6.338160000000000     -9.914070000000001
O       1.617820000000000      6.992120000000000     -8.978550000000000
C       3.434120000000000      6.806430000000000     -7.440950000000000
C      -0.528980000000000      5.878320000000000     -9.284580000000000
H       1.617180000000000      5.668010000000000     -7.379660000000000
H       2.763150000000000      5.245060000000000     -8.737900000000000
H       0.538790000000000      7.077100000000000    -10.706750000000000
H       1.303830000000000      5.499360000000000    -10.428110000000000
H      -1.057280000000000      6.741890000000000     -8.830660000000000
H      -1.178400000000000      5.435390000000000    -10.068500000000000
H      -0.346640000000000      5.108770000000000     -8.507090000000000
H       3.029170000000000      7.649100000000000     -6.840480000000000
H       3.969220000000000      6.108170000000000     -6.764160000000000
H       4.156450000000000      7.207850000000000     -8.182050000000000
C       5.497240000000000      7.442680000000000    -11.350510000000000
C       6.197040000000000      9.251830000000000    -10.086209999999999
O       5.108260000000000      8.427470000000000    -10.423959999999999
C       4.272260000000000      6.606360000000000    -11.695700000000000
C       5.717980000000000     10.272340000000000     -9.062419999999999
H       5.874040000000000      7.906030000000000    -12.290229999999999
H       6.262990000000000      6.766970000000000    -10.907800000000000
H       7.015960000000000      8.657090000000000     -9.622470000000000
H       6.566550000000000      9.804349999999999    -10.979350000000000
H       5.342010000000000      9.750170000000001     -8.156599999999999
H       6.552440000000000     10.943350000000001     -8.770960000000001
H       4.894840000000000     10.884460000000001     -9.490840000000000
H       3.483200000000000      7.250220000000000    -12.140930000000001
H       4.542070000000000      5.811120000000000    -12.420959999999999
H       3.868990000000000      6.131910000000000    -10.777189999999999
Mg      3.728200000000000      9.009380000000000     -0.500200000000000
H       2.974230000000000     11.868090000000000      0.348430000000000
C       5.148580000000000     12.068390000000001      0.127000000000000
C       3.907040000000000     11.323460000000001      0.599150000000000
C       5.240800000000000     12.197540000000000     -1.402360000000000
H       5.162530000000000     13.072820000000000      0.599090000000000
H       6.041950000000000     11.504260000000000      0.472530000000000
H       6.173330000000000     12.755179999999999     -1.638280000000000
H       5.314310000000000     11.191480000000000     -1.867100000000000
C       4.061870000000000     12.942620000000000     -2.026780000000000
H       3.945290000000000     11.142090000000000      1.692670000000000
H       3.121480000000000     12.367360000000000     -1.898800000000000
H       3.950100000000000     13.947020000000000     -1.567630000000000
H       4.238740000000000     13.063800000000001     -3.116580000000000
C       6.062620000000000      8.392300000000001     -2.562420000000000
C       6.167290000000000      7.462660000000000     -3.584180000000000
C       4.974010000000000      6.756780000000000     -3.611170000000000
C       4.185840000000000      7.298320000000000     -2.620340000000000
N       4.856430000000000      8.271800000000001     -1.987040000000000
C       2.774670000000000      6.899890000000000     -2.231320000000000
N       2.217770000000000      7.895120000000000     -1.290020000000000
C       0.850210000000000      7.756450000000000     -0.758730000000000
H       7.018540000000000      7.311580000000000     -4.233530000000000
H       6.821660000000000      9.103230000000000     -2.260750000000000
H       4.707980000000000      5.951400000000000     -4.281880000000000
H       2.821260000000000      5.891380000000000     -1.770230000000000
H       2.153560000000000      6.874830000000000     -3.146690000000000
C       0.670030000000000      6.407730000000000     -0.040270000000000
C       0.597750000000000      8.894489999999999      0.247030000000000
C      -0.166830000000000      7.886180000000000     -1.909670000000000
H       1.403100000000000      6.307660000000000      0.788680000000000
H      -0.355040000000000      6.325240000000000      0.381550000000000
H       0.808000000000000      5.564640000000000     -0.745800000000000
H       0.726340000000000      9.885990000000000     -0.238480000000000
H      -0.437950000000000      8.837650000000000      0.650520000000000
H       1.306100000000000      8.830420000000000      1.100670000000000
H      -0.039610000000000      8.863590000000000     -2.425180000000000
H      -0.035830000000000      7.077860000000000     -2.657470000000000
H      -1.207400000000000      7.823840000000000     -1.526150000000000
