140

Mg      0.194290000000000      0.773960000000000     -0.619420000000000
H      -1.928030000000000      0.703270000000000     -2.757820000000000
C      -0.162740000000000      0.023630000000000     -3.887700000000000
C      -0.852010000000000      0.939010000000000     -2.885590000000000
C      -0.111210000000000     -1.450010000000000     -3.447840000000000
H      -0.682990000000000      0.117120000000000     -4.862730000000000
H       0.885760000000000      0.372280000000000     -4.009200000000000
H       0.392530000000000     -2.024600000000000     -4.255590000000000
H       0.496070000000000     -1.555700000000000     -2.523740000000000
C      -1.487250000000000     -2.065380000000000     -3.201310000000000
H      -0.720740000000000      2.008750000000000     -3.148350000000000
H      -1.980430000000000     -1.583090000000000     -2.331770000000000
H      -2.127050000000000     -1.957350000000000     -4.101470000000000
H      -1.372320000000000     -3.145860000000000     -2.969770000000000
C       2.576310000000000     -1.320440000000000     -0.436130000000000
C       3.171440000000000     -1.933710000000000      0.654860000000000
C       2.511300000000000     -1.473450000000000      1.783580000000000
C       1.535160000000000     -0.614760000000000      1.335820000000000
N       1.588320000000000     -0.524570000000000     -0.001890000000000
C       0.535510000000000      0.166480000000000      2.165020000000000
N      -0.496240000000000      0.758440000000000      1.289390000000000
C      -1.609480000000000      1.539220000000000      1.859660000000000
H       3.996380000000000     -2.631510000000000      0.633320000000000
H       2.856730000000000     -1.448240000000000     -1.475130000000000
H       2.711250000000000     -1.739050000000000      2.812860000000000
H       1.096950000000000      0.956710000000000      2.705180000000000
H       0.057090000000000     -0.526140000000000      2.881030000000000
C      -1.086950000000000      2.705900000000000      2.717960000000000
C      -2.457650000000000      2.110620000000000      0.708320000000000
C      -2.500310000000000      0.612240000000000      2.709140000000000
H      -0.440330000000000      3.374940000000000      2.110760000000000
H      -1.934800000000000      3.302310000000000      3.119430000000000
H      -0.503070000000000      2.333040000000000      3.584390000000000
H      -2.845590000000000      1.295610000000000      0.060140000000000
H      -3.327720000000000      2.678330000000000      1.108830000000000
H      -1.854750000000000      2.798760000000000      0.078890000000000
H      -2.888350000000000     -0.222370000000000      2.084480000000000
H      -1.936570000000000      0.177290000000000      3.558740000000000
H      -3.362740000000000      1.169050000000000      3.131860000000000
Na      0.223670000000000      8.396360000000000     -4.661080000000000
C       1.716610000000000      9.604060000000000     -2.110940000000000
C       2.439660000000000      7.377940000000000     -2.270310000000000
O       1.367340000000000      8.280110000000001     -2.466000000000000
C       2.310650000000000     10.347619999999999     -3.303170000000000
C       2.412250000000000      6.784710000000000     -0.863810000000000
H       0.788340000000000     10.128920000000001     -1.800680000000000
H       2.402690000000000      9.647449999999999     -1.235290000000000
H       2.322920000000000      6.550600000000000     -3.002490000000000
H       3.430910000000000      7.838260000000000     -2.478890000000000
H       1.457060000000000      6.248370000000000     -0.686050000000000
H       3.247740000000000      6.062280000000000     -0.752920000000000
H       2.528120000000000      7.581030000000000     -0.100080000000000
H       1.587320000000000     10.362640000000001     -4.145190000000000
H       2.540750000000000     11.393150000000000     -3.010470000000000
H       3.247810000000000      9.859730000000001     -3.640280000000000
C       3.092620000000000      7.753150000000000     -6.290190000000000
C       1.221610000000000      7.698110000000000     -7.766520000000000
O       1.682870000000000      7.749120000000000     -6.427830000000000
C       3.769030000000000      8.978460000000000     -6.905980000000000
C       1.613400000000000      6.415100000000000     -8.499510000000001
H       3.300840000000000      7.787310000000000     -5.200250000000000
H       3.544440000000000      6.805530000000000     -6.648280000000000
H       0.111660000000000      7.712800000000000     -7.716680000000000
H       1.503570000000000      8.606660000000000     -8.337830000000000
H       1.297150000000000      5.528680000000000     -7.910330000000000
H       1.109730000000000      6.389850000000000     -9.488420000000000
H       2.707020000000000      6.376460000000000     -8.677280000000000
H       3.314010000000000      9.908620000000001     -6.505120000000000
H       4.849030000000000      8.965610000000000     -6.648770000000000
H       3.686780000000000      8.966620000000001     -8.011500000000000
Na     -0.530520000000000      7.300680000000000     -1.386430000000000
C      -2.650000000000000      7.869830000000000     -3.885830000000000
C      -1.660810000000000      5.752730000000000     -4.030040000000000
O      -1.511470000000000      7.087500000000000     -3.589880000000000
C      -2.580670000000000      9.159549999999999     -3.077050000000000
C      -1.403050000000000      5.613970000000000     -5.529140000000000
H      -2.657840000000000      8.141060000000000     -4.963210000000000
H      -3.597170000000000      7.355220000000000     -3.607880000000000
H      -0.897590000000000      5.144730000000000     -3.498340000000000
H      -2.646620000000000      5.322570000000000     -3.746160000000000
H      -0.391240000000000      5.994300000000000     -5.779200000000000
H      -1.462010000000000      4.543040000000000     -5.815760000000000
H      -2.160920000000000      6.173830000000000     -6.114130000000000
H      -1.648260000000000      9.714840000000001     -3.315640000000000
H      -3.452640000000000      9.803060000000000     -3.317040000000000
H      -2.594970000000000      8.931270000000000     -1.990860000000000
C      -3.060760000000000      6.824590000000000      0.700580000000000
C      -1.844630000000000      8.676000000000000      1.376130000000000
O      -2.014000000000000      7.705490000000000      0.371930000000000
C      -3.172210000000000      5.787400000000000     -0.408620000000000
C      -0.721410000000000      9.610390000000001      0.946290000000000
H      -2.846960000000000      6.288680000000000      1.652920000000000
H      -4.029100000000000      7.370170000000000      0.761610000000000
H      -2.769200000000000      9.283519999999999      1.500570000000000
H      -1.550800000000000      8.201090000000001      2.339240000000000
H      -0.985730000000000     10.101270000000000     -0.014820000000000
H      -0.557360000000000     10.392260000000000      1.716570000000000
H       0.220370000000000      9.036120000000000      0.808190000000000
H      -2.218620000000000      5.224760000000000     -0.500750000000000
H      -3.994070000000000      5.075240000000000     -0.188180000000000
H      -3.382940000000000      6.290300000000000     -1.375080000000000
Mg     -0.819620000000000     15.849790000000000     -5.372430000000000
H       2.031310000000000     16.971299999999999     -5.126020000000000
C       1.117600000000000     17.771319999999999     -3.297590000000000
C       1.093140000000000     17.455729999999999     -4.787200000000000
C       1.184130000000000     16.519570000000002     -2.407120000000000
H       1.980170000000000     18.437860000000001     -3.088920000000000
H       0.182090000000000     18.315919999999998     -3.044630000000000
H       1.201510000000000     16.859130000000000     -1.348540000000000
H       0.276070000000000     15.897190000000000     -2.554140000000000
C       2.418640000000000     15.654430000000000     -2.656900000000000
H       0.914890000000000     18.373090000000001     -5.384520000000000
H       2.389630000000000     15.213460000000000     -3.674920000000000
H       3.344440000000000     16.254899999999999     -2.536740000000000
H       2.435810000000000     14.818080000000000     -1.926230000000000
C      -2.520840000000000     14.919900000000000     -2.856830000000000
C      -3.378080000000000     13.847770000000001     -2.670880000000000
C      -3.392430000000000     13.131520000000000     -3.858140000000000
C      -2.528990000000000     13.784459999999999     -4.709460000000000
N      -2.021740000000000     14.866130000000000     -4.101760000000000
C      -2.168770000000000     13.411090000000000     -6.135220000000000
N      -1.028030000000000     14.233150000000000     -6.592610000000000
C      -0.465900000000000     14.065830000000000     -7.944640000000000
H      -3.935110000000000     13.615780000000001     -1.773530000000000
H      -2.285110000000000     15.687329999999999     -2.130530000000000
H      -3.956770000000000     12.234410000000000     -4.071670000000000
H      -3.065210000000000     13.580590000000001     -6.766750000000000
H      -1.881280000000000     12.342919999999999     -6.155310000000000
C      -1.544740000000000     14.273520000000000     -9.022959999999999
C       0.646360000000000     15.111649999999999     -8.145289999999999
C       0.154830000000000     12.661060000000001     -8.075450000000000
H      -1.994290000000000     15.285390000000000     -8.931410000000000
H      -1.102570000000000     14.173400000000001    -10.037940000000001
H      -2.349670000000000     13.515430000000000     -8.934380000000001
H       1.441040000000000     14.995310000000000     -7.377010000000000
H       1.114640000000000     14.997579999999999     -9.148520000000000
H       0.237110000000000     16.141870000000001     -8.069360000000000
H       0.938210000000000     12.514519999999999     -7.299440000000000
H      -0.610510000000000     11.868190000000000     -7.952290000000000
H       0.620590000000000     12.526380000000000     -9.074790000000000
