125

Mg     -0.094190000000000     -0.518680000000000     -0.091700000000000
C      -0.471610000000000     -0.998470000000000      3.038520000000000
C      -2.359600000000000     -1.781800000000000      1.810000000000000
O      -1.376040000000000     -0.782370000000000      1.972770000000000
C       0.331640000000000     -2.294030000000000      2.926370000000000
C      -3.398750000000000     -1.736360000000000      2.918080000000000
H       0.259750000000000     -0.172220000000000      2.983540000000000
H      -0.958980000000000     -0.883400000000000      4.026930000000000
H      -2.877310000000000     -1.556990000000000      0.851810000000000
H      -1.930920000000000     -2.796560000000000      1.677960000000000
H      -3.780930000000000     -0.699340000000000      3.025180000000000
H      -4.240360000000000     -2.412950000000000      2.663190000000000
H      -2.949510000000000     -2.070800000000000      3.874590000000000
H       0.731000000000000     -2.417190000000000      1.900050000000000
H       1.182430000000000     -2.259560000000000      3.638610000000000
H      -0.300100000000000     -3.166820000000000      3.183900000000000
H       0.985550000000000     -2.648730000000000     -1.108240000000000
C      -0.816940000000000     -2.273600000000000     -2.277080000000000
C      -0.082760000000000     -2.395590000000000     -0.957680000000000
C      -0.235100000000000     -1.129570000000000     -3.115380000000000
H      -0.717130000000000     -3.242460000000000     -2.805020000000000
H      -1.893110000000000     -2.064010000000000     -2.084860000000000
H      -0.442570000000000     -0.159940000000000     -2.616480000000000
H       0.865340000000000     -1.240320000000000     -3.213310000000000
C      -0.842490000000000     -1.120650000000000     -4.512590000000000
H      -0.563690000000000     -3.141550000000000     -0.293980000000000
H      -0.588730000000000     -2.070690000000000     -5.029790000000000
H      -1.946660000000000     -1.014220000000000     -4.462100000000000
H      -0.424230000000000     -0.275950000000000     -5.099190000000000
C      -1.133980000000000      2.488870000000000     -2.218340000000000
C      -2.015620000000000      1.812200000000000     -1.406110000000000
C      -1.425280000000000      1.702970000000000     -0.160090000000000
C      -0.214980000000000      2.271210000000000     -0.217710000000000
N       0.019670000000000      2.821370000000000     -1.493830000000000
C       0.798520000000000      2.337350000000000      0.894370000000000
N       1.381140000000000      1.013000000000000      1.174220000000000
C       2.727290000000000      0.711990000000000      0.627790000000000
H      -2.980380000000000      1.423890000000000     -1.706520000000000
H      -1.288430000000000      2.722730000000000     -3.261460000000000
H      -1.866960000000000      1.219040000000000      0.697470000000000
H       0.297810000000000      2.710410000000000      1.812250000000000
H       1.573010000000000      3.071710000000000      0.622800000000000
C       3.783830000000000      1.660700000000000      1.226470000000000
C       3.088700000000000     -0.726990000000000      1.047940000000000
C       2.756250000000000      0.782880000000000     -0.914120000000000
H       3.725160000000000      1.644510000000000      2.335470000000000
H       4.804560000000000      1.345590000000000      0.920370000000000
H       3.656910000000000      2.702630000000000      0.876020000000000
H       2.381860000000000     -1.455470000000000      0.600510000000000
H       4.111390000000000     -1.002880000000000      0.707960000000000
H       3.045990000000000     -0.836200000000000      2.152970000000000
H       2.081180000000000      0.022140000000000     -1.360530000000000
H       2.450940000000000      1.782380000000000     -1.277830000000000
H       3.784250000000000      0.590010000000000     -1.292400000000000
Na     -1.938220000000000     13.997610000000000      5.094760000000000
C      -0.756640000000000     11.138019999999999      6.190010000000000
C      -3.059670000000000     11.124300000000000      6.221950000000000
O      -1.907250000000000     11.845240000000000      6.601060000000000
C       0.482240000000000     11.913950000000000      6.614150000000000
C      -4.298110000000000     11.894480000000000      6.656360000000000
H      -0.712370000000000     10.135450000000001      6.674140000000000
H      -0.731010000000000     11.036720000000001      5.081100000000000
H      -3.105300000000000     11.002590000000000      5.115510000000000
H      -3.086030000000000     10.134259999999999      6.727750000000000
H      -4.318260000000000     12.892840000000000      6.170140000000000
H      -5.210520000000000     11.333200000000000      6.362470000000000
H      -4.298170000000000     12.026700000000000      7.759200000000000
H       0.501680000000000     12.029170000000001      7.718750000000000
H       1.395170000000000     11.368470000000000      6.293930000000000
H       0.482220000000000     12.920550000000000      6.144290000000000
Na     -1.878320000000000     11.615769999999999      9.226270000000000
Mg     -2.484310000000000      4.880100000000000      6.444320000000000
C      -1.223420000000000      4.567090000000000     10.088749999999999
C      -3.527970000000000      4.626170000000000     10.146610000000001
O      -2.375870000000000      5.178650000000000      9.544070000000000
C      -0.005020000000000      5.425940000000000      9.787720000000000
C      -4.772190000000000      5.197280000000000      9.481400000000001
H      -1.283520000000000      4.475110000000000     11.196930000000000
H      -1.074140000000000      3.562740000000000      9.638579999999999
H      -3.550250000000000      3.520090000000000     10.032950000000000
H      -3.567630000000000      4.892360000000000     11.225320000000000
H      -4.783060000000000      4.946990000000000      8.401300000000001
H      -5.680850000000000      4.769120000000000      9.955220000000001
H      -4.791920000000000      6.301100000000000      9.597560000000000
H      -0.128210000000000      6.434270000000000     10.233610000000001
H       0.906300000000000      4.947030000000000     10.202290000000000
H       0.129260000000000      5.540440000000000      8.700620000000001
H      -4.531920000000000      7.358830000000000      7.233990000000000
C      -4.648150000000000      6.565020000000000      5.195000000000000
C      -3.862340000000000      7.033450000000000      6.412470000000000
C      -5.548510000000000      5.371950000000000      5.537580000000000
H      -5.262800000000000      7.415350000000000      4.833430000000000
H      -3.935120000000000      6.266620000000000      4.394690000000000
H      -4.928610000000000      4.502060000000000      5.847020000000000
H      -6.226640000000000      5.640900000000000      6.375520000000000
C      -6.400170000000000      4.971190000000000      4.336580000000000
H      -3.162550000000000      7.846760000000000      6.136010000000000
H      -7.044510000000000      5.822490000000000      4.028970000000000
H      -5.755810000000000      4.673700000000000      3.482130000000000
H      -7.052640000000000      4.114690000000000      4.608250000000000
C      -3.684060000000000      2.241220000000000      7.719120000000000
C      -3.091040000000000      1.037830000000000      8.061460000000000
C      -1.748340000000000      1.146590000000000      7.730270000000000
C      -1.574520000000000      2.414710000000000      7.221900000000000
N      -2.752210000000000      3.059430000000000      7.217340000000000
C      -0.300070000000000      3.058130000000000      6.705950000000000
N      -0.482340000000000      4.520530000000000      6.537700000000000
C       0.449160000000000      5.272950000000000      5.675730000000000
H      -3.582240000000000      0.180830000000000      8.499090000000001
H      -4.730770000000000      2.497480000000000      7.840680000000000
H      -0.984830000000000      0.390280000000000      7.859150000000000
H       0.510850000000000      2.897170000000000      7.446150000000000
H      -0.037520000000000      2.557810000000000      5.752190000000000
C       0.188450000000000      4.962600000000000      4.192470000000000
C       0.216480000000000      6.780500000000000      5.906780000000000
C       1.909540000000000      4.943530000000000      6.047480000000000
H      -0.854100000000000      5.233650000000000      3.918700000000000
H       0.882650000000000      5.546520000000000      3.549260000000000
H       0.344640000000000      3.889120000000000      3.972080000000000
H       0.397830000000000      7.058980000000000      6.966120000000000
H       0.903320000000000      7.387430000000000      5.276520000000000
H      -0.826390000000000      7.062640000000000      5.650780000000000
H       2.091270000000000      5.163470000000000      7.122240000000000
H       2.136080000000000      3.872380000000000      5.866340000000000
H       2.617310000000000      5.548390000000000      5.441780000000000
