200

Mg     -0.141160000000000     -0.230230000000000     -0.380390000000000
C      -2.417840000000000      2.045720000000000      1.011970000000000
C      -1.643260000000000      0.393370000000000      2.549080000000000
O      -1.452080000000000      1.055160000000000      1.312790000000000
C      -2.381940000000000      3.243110000000000      1.956640000000000
C      -2.934730000000000     -0.417830000000000      2.615090000000000
H      -2.172210000000000      2.421380000000000     -0.004820000000000
H      -3.439620000000000      1.627330000000000      0.937510000000000
H      -0.813600000000000     -0.334780000000000      2.646250000000000
H      -1.528570000000000      1.080450000000000      3.411740000000000
H      -3.007900000000000     -1.093130000000000      1.737630000000000
H      -2.931440000000000     -1.031400000000000      3.539990000000000
H      -3.818330000000000      0.249270000000000      2.649530000000000
H      -1.359710000000000      3.668600000000000      2.008930000000000
H      -3.074570000000000      4.022650000000000      1.575600000000000
H      -2.716770000000000      2.950860000000000      2.971330000000000
H      -2.132500000000000      0.770180000000000     -2.348840000000000
C      -3.373350000000000     -0.745030000000000     -1.358680000000000
C      -2.063040000000000     -0.258490000000000     -1.938780000000000
C      -4.417340000000000     -0.818330000000000     -2.459930000000000
H      -3.228450000000000     -1.747170000000000     -0.905010000000000
H      -3.703780000000000     -0.046420000000000     -0.565540000000000
H      -4.547500000000000      0.191320000000000     -2.907070000000000
H      -4.067720000000000     -1.522220000000000     -3.246340000000000
C      -5.749530000000000     -1.299860000000000     -1.908370000000000
H      -1.642140000000000     -0.973300000000000     -2.675900000000000
H      -5.637050000000000     -2.313010000000000     -1.466570000000000
H      -6.116920000000000     -0.598280000000000     -1.129090000000000
H      -6.487700000000000     -1.343880000000000     -2.734430000000000
C       4.657310000000000      0.772880000000000     -0.622620000000000
C       4.867460000000000     -0.557640000000000     -0.878350000000000
C       3.950230000000000     -1.284130000000000     -0.127870000000000
C       3.186960000000000     -0.416180000000000      0.551620000000000
N       3.603460000000000      0.898870000000000      0.292410000000000
C       2.070370000000000     -0.715740000000000      1.534390000000000
N       0.848870000000000     -1.323620000000000      0.979740000000000
C       0.682800000000000     -2.755180000000000      0.684300000000000
H       5.622690000000000     -0.950260000000000     -1.546860000000000
H       5.202770000000000      1.604870000000000     -1.045980000000000
H       3.895080000000000     -2.356630000000000     -0.103360000000000
H       1.750900000000000      0.270030000000000      1.938970000000000
H       2.450870000000000     -1.288600000000000      2.397910000000000
C       1.549760000000000     -3.616020000000000      1.606740000000000
C      -0.797080000000000     -3.103620000000000      0.937110000000000
C       0.973870000000000     -3.033000000000000     -0.804520000000000
H       1.301410000000000     -3.385210000000000      2.665830000000000
H       1.365240000000000     -4.693060000000000      1.421000000000000
H       2.623340000000000     -3.412000000000000      1.440150000000000
H      -1.456170000000000     -2.485220000000000      0.294950000000000
H      -1.003300000000000     -4.171760000000000      0.708890000000000
H      -1.077660000000000     -2.906190000000000      1.993510000000000
H       0.267120000000000     -2.476270000000000     -1.459460000000000
H       1.988660000000000     -2.731410000000000     -1.098860000000000
H       0.858510000000000     -4.115670000000000     -1.025400000000000
C       1.487450000000000      1.958340000000000     -1.970980000000000
C       1.048340000000000      2.811210000000000      0.185260000000000
O       0.635680000000000      1.932130000000000     -0.842340000000000
C       1.606450000000000      0.554040000000000     -2.567470000000000
C       0.683820000000000      4.244740000000000     -0.139930000000000
H       1.038050000000000      2.625500000000000     -2.733730000000000
H       2.515110000000000      2.312260000000000     -1.739010000000000
H       0.533630000000000      2.511510000000000      1.119790000000000
H       2.123060000000000      2.739950000000000      0.420170000000000
H      -0.406050000000000      4.322060000000000     -0.330370000000000
H       0.959420000000000      4.891250000000000      0.718640000000000
H       1.246170000000000      4.572730000000000     -1.037400000000000
H       2.058160000000000     -0.150300000000000     -1.845360000000000
H       0.611820000000000      0.156570000000000     -2.853020000000000
H       2.249580000000000      0.581600000000000     -3.471010000000000
Na     14.389290000000001      3.310990000000000     -6.805510000000000
C      16.273180000000000      1.175560000000000     -8.255110000000000
C      14.606439999999999      1.690630000000000     -9.822749999999999
O      14.916010000000000      1.521660000000000     -8.452540000000001
C      17.134200000000000      2.424930000000000     -8.099470000000000
C      14.145370000000000      0.377230000000000    -10.449529999999999
H      16.340550000000000      0.586300000000000     -7.316170000000000
H      16.671440000000000      0.518310000000000     -9.060670000000000
H      13.775430000000000      2.424480000000000     -9.893160000000000
H      15.451260000000000      2.123160000000000    -10.403630000000000
H      13.248830000000000     -0.011080000000000     -9.923389999999999
H      13.881930000000001      0.549770000000000    -11.513920000000001
H      14.951110000000000     -0.383960000000000    -10.402049999999999
H      16.772060000000000      3.036040000000000     -7.246500000000000
H      18.185960000000001      2.128370000000000     -7.906190000000000
H      17.102969999999999      3.038540000000000     -9.022740000000001
C      15.000980000000000      5.699140000000000     -9.104210000000000
C      14.024540000000000      6.613180000000000     -7.131010000000000
O      14.354139999999999      5.449250000000000     -7.868910000000000
C      16.362819999999999      6.379960000000000     -8.961449999999999
C      13.014220000000000      7.518280000000000     -7.835870000000000
H      15.186859999999999      4.707280000000000     -9.566990000000001
H      14.340299999999999      6.237750000000000     -9.813870000000000
H      13.542680000000001      6.264280000000000     -6.192470000000000
H      14.928280000000001      7.170730000000000     -6.809180000000000
H      12.114900000000000      6.933560000000000     -8.122410000000000
H      12.710360000000000      8.334020000000001     -7.147010000000000
H      13.459759999999999      7.986660000000000     -8.736530000000000
H      17.009689999999999      5.800300000000000     -8.269819999999999
H      16.852060000000002      6.428010000000000     -9.956950000000001
H      16.253460000000000      7.419080000000000     -8.590809999999999
Na     13.240700000000000      0.045680000000000     -7.575960000000000
C      12.657109999999999      1.826820000000000     -4.822750000000000
C      11.208170000000001      2.394620000000000     -6.568270000000000
O      12.491970000000000      1.914960000000000     -6.222420000000000
C      13.884029999999999      0.975270000000000     -4.524770000000000
C      11.113329999999999      3.912940000000000     -6.434630000000000
H      12.825830000000000      2.837100000000000     -4.391770000000000
H      11.790979999999999      1.332510000000000     -4.334070000000000
H      11.038520000000000      2.136550000000000     -7.635610000000000
H      10.398510000000000      1.886560000000000     -5.998590000000000
H      11.893350000000000      4.398430000000000     -7.056650000000000
H      10.115990000000000      4.252360000000000     -6.784330000000000
H      11.237399999999999      4.225640000000000     -5.377650000000000
H      14.784960000000000      1.418290000000000     -5.000440000000000
H      14.046740000000000      0.919230000000000     -3.427630000000000
H      13.739369999999999     -0.053050000000000     -4.917000000000000
C      11.808210000000001     -2.608690000000000     -6.198520000000000
C      14.042949999999999     -3.066880000000000     -6.592950000000000
O      13.045000000000000     -2.075270000000000     -6.605560000000000
C      10.768129999999999     -1.498220000000000     -6.262680000000000
C      15.356740000000000     -2.421890000000000     -7.013420000000000
H      11.482400000000000     -3.425640000000000     -6.881370000000000
H      11.862860000000000     -2.970070000000000     -5.147150000000000
H      14.175760000000000     -3.482750000000000     -5.568820000000000
H      13.805990000000000     -3.875760000000000     -7.320370000000000
H      15.621180000000001     -1.608020000000000     -6.304810000000000
H      16.170500000000001     -3.176460000000000     -7.015110000000000
H      15.260759999999999     -1.991590000000000     -8.033899999999999
H      10.686790000000000     -1.110810000000000     -7.301300000000000
H       9.777620000000001     -1.880950000000000     -5.940800000000000
H      11.064959999999999     -0.664610000000000     -5.593150000000000
Mg     11.148770000000001      2.819460000000000      1.331170000000000
C      14.570930000000001      2.303090000000000      2.278070000000000
C      13.718579999999999      0.607380000000000      0.839960000000000
O      13.551580000000000      1.907310000000000      1.376930000000000
C      15.942299999999999      2.461750000000000      1.623880000000000
C      13.618460000000001     -0.502350000000000      1.885540000000000
H      14.275820000000000      3.300950000000000      2.667660000000000
H      14.625560000000000      1.642890000000000      3.165240000000000
H      12.882330000000000      0.448800000000000      0.129410000000000
H      14.638330000000000      0.524090000000000      0.226480000000000
H      12.681190000000001     -0.394120000000000      2.469550000000000
H      13.611459999999999     -1.486810000000000      1.372980000000000
H      14.489060000000000     -0.484480000000000      2.570570000000000
H      15.882600000000000      3.148610000000000      0.755700000000000
H      16.649920000000002      2.884790000000000      2.367210000000000
H      16.341930000000001      1.481850000000000      1.295900000000000
H      11.811610000000000      3.836780000000000      4.147420000000000
C      11.602490000000000      1.711050000000000      4.615290000000000
C      11.178890000000001      2.965810000000000      3.877340000000000
C      11.438040000000001      1.910750000000000      6.116930000000000
H      10.978710000000000      0.858070000000000      4.274920000000000
H      12.661759999999999      1.490200000000000      4.375420000000000
H      12.061920000000001      2.770790000000000      6.444900000000000
H      10.371960000000000      2.130350000000000      6.344090000000000
C      11.865970000000001      0.665060000000000      6.878550000000000
H      10.103450000000000      3.187860000000000      4.039530000000000
H      11.243960000000000     -0.203240000000000      6.573130000000000
H      12.934880000000000      0.440620000000000      6.675050000000000
H      11.734230000000000      0.839380000000000      7.966070000000000
C       9.924550000000000      5.620390000000000     -2.434360000000000
C       8.680490000000001      5.042800000000000     -2.383010000000000
C       8.851319999999999      3.705300000000000     -2.056460000000000
C      10.158930000000000      3.476730000000000     -1.892300000000000
N      10.893879999999999      4.651020000000000     -2.139040000000000
C      10.832280000000001      2.161670000000000     -1.563310000000000
N      10.583980000000000      1.629930000000000     -0.211020000000000
C       9.390290000000000      0.855920000000000      0.172420000000000
H       7.745030000000000      5.553490000000000     -2.570760000000000
H      10.139320000000000      6.655450000000000     -2.664140000000000
H       8.054869999999999      2.988660000000000     -1.972310000000000
H      11.926670000000000      2.354020000000000     -1.615210000000000
H      10.614960000000000      1.408020000000000     -2.339470000000000
C       8.797960000000000      0.082850000000000     -1.015290000000000
C       9.840370000000000     -0.161150000000000      1.237640000000000
C       8.343710000000000      1.778360000000000      0.831040000000000
H       9.571859999999999     -0.583920000000000     -1.454070000000000
H       7.943700000000000     -0.540760000000000     -0.682220000000000
H       8.434189999999999      0.770210000000000     -1.801490000000000
H      10.278400000000000      0.362970000000000      2.112420000000000
H       8.984410000000000     -0.772770000000000      1.596400000000000
H      10.616610000000000     -0.843000000000000      0.829340000000000
H       8.763640000000001      2.265520000000000      1.738520000000000
H       8.004540000000000      2.582130000000000      0.162690000000000
H       7.451710000000000      1.194310000000000      1.143450000000000
C      11.494500000000000      5.938900000000000      0.874340000000000
C      13.377969999999999      4.889010000000000     -0.075520000000000
O      12.366740000000000      4.825580000000000      0.910570000000000
C      10.073869999999999      5.488500000000000      1.213060000000000
C      14.500629999999999      5.816220000000000      0.350880000000000
H      11.824130000000000      6.672610000000000      1.638020000000000
H      11.456440000000001      6.440630000000000     -0.117400000000000
H      13.787340000000000      3.866990000000000     -0.208460000000000
H      13.000470000000000      5.179150000000000     -1.073480000000000
H      14.904529999999999      5.493830000000000      1.332680000000000
H      15.308389999999999      5.783810000000000     -0.409450000000000
H      14.117200000000000      6.853960000000000      0.428320000000000
H       9.703860000000001      4.756870000000000      0.469020000000000
H      10.041740000000001      5.011650000000000      2.213830000000000
H       9.388980000000000      6.361150000000000      1.213470000000000
