95

Mg      0.573910000000000     -0.061190000000000     -0.411770000000000
H       0.558170000000000      1.559590000000000     -2.934500000000000
C      -1.262970000000000      0.376330000000000     -3.234430000000000
C       0.178150000000000      0.527510000000000     -2.791100000000000
C      -1.356650000000000      0.636930000000000     -4.732530000000000
H      -1.610370000000000     -0.653690000000000     -3.000240000000000
H      -1.893250000000000      1.099640000000000     -2.671530000000000
H      -0.993860000000000      1.665770000000000     -4.947260000000000
H      -0.712530000000000     -0.092640000000000     -5.270610000000000
C      -2.787660000000000      0.498510000000000     -5.228080000000000
H       0.841510000000000     -0.226540000000000     -3.264030000000000
H      -3.162210000000000     -0.529650000000000     -5.037410000000000
H      -3.444260000000000      1.231850000000000     -4.713580000000000
H      -2.812530000000000      0.695100000000000     -6.319750000000000
C       3.130870000000000      1.290340000000000      0.890930000000000
C       3.550080000000000      1.370670000000000      2.209400000000000
C       2.596130000000000      0.717900000000000      2.974810000000000
C       1.632950000000000      0.278440000000000      2.097810000000000
N       1.967350000000000      0.624930000000000      0.845810000000000
C       0.373270000000000     -0.500830000000000      2.422530000000000
N      -0.485210000000000     -0.608340000000000      1.225670000000000
C      -1.791790000000000     -1.287750000000000      1.290460000000000
H       4.449980000000000      1.845470000000000      2.573640000000000
H       3.649400000000000      1.689730000000000      0.027080000000000
H       2.596840000000000      0.583320000000000      4.047770000000000
H      -0.171510000000000      0.035920000000000      3.220280000000000
H       0.684730000000000     -1.506460000000000      2.772060000000000
C      -2.739400000000000     -0.494740000000000      2.210220000000000
C      -2.406140000000000     -1.331640000000000     -0.120740000000000
C      -1.631330000000000     -2.728870000000000      1.805700000000000
H      -2.867710000000000      0.541350000000000      1.826290000000000
H      -3.736940000000000     -0.979470000000000      2.261490000000000
H      -2.343530000000000     -0.436930000000000      3.243840000000000
H      -1.759960000000000     -1.909820000000000     -0.815040000000000
H      -3.407650000000000     -1.817290000000000     -0.095770000000000
H      -2.533000000000000     -0.305810000000000     -0.527940000000000
H      -0.939440000000000     -3.298610000000000      1.148550000000000
H      -1.230510000000000     -2.737480000000000      2.839160000000000
H      -2.613320000000000     -3.248410000000000      1.822800000000000
Na     -3.064480000000000     -2.427730000000000      9.771060000000000
C      -5.158640000000000     -1.668310000000000     12.145490000000001
C      -5.762380000000000     -3.656410000000000     11.149850000000001
O      -5.403540000000000     -2.311820000000000     10.913150000000000
C      -4.778530000000000     -0.217520000000000     11.884490000000000
C      -6.011480000000000     -4.348720000000000      9.817310000000001
H      -6.073060000000000     -1.670190000000000     12.781639999999999
H      -4.309460000000000     -2.150730000000000     12.681010000000001
H      -4.939460000000000     -4.201670000000000     11.665970000000000
H      -6.702720000000000     -3.714210000000000     11.744240000000000
H      -5.091320000000000     -4.324710000000000      9.195430000000000
H      -6.298190000000000     -5.407390000000000      9.992310000000000
H      -6.834040000000000     -3.839800000000000      9.270849999999999
H      -5.605360000000000      0.306140000000000     11.359200000000000
H      -4.582550000000000      0.298460000000000     12.848409999999999
H      -3.862050000000000     -0.168760000000000     11.258839999999999
Na     -7.640600000000000     -1.203900000000000     10.063409999999999
Mg     -2.048090000000000     -6.144250000000000      6.404930000000000
H      -2.993400000000000     -8.191200000000000      4.196710000000000
C      -0.828310000000000     -8.283490000000000      3.872840000000000
C      -2.099110000000000     -7.537310000000000      4.244130000000000
C      -0.556350000000000     -9.490010000000000      4.782130000000000
H      -0.934910000000000     -8.637770000000000      2.826390000000000
H       0.034070000000000     -7.584940000000000      3.919560000000000
H      -1.408510000000000    -10.202579999999999      4.736220000000000
H       0.349290000000000    -10.003119999999999      4.395360000000000
C      -0.293100000000000     -9.106180000000000      6.239840000000000
H      -2.236790000000000     -6.653510000000000      3.584400000000000
H      -1.199020000000000     -8.667770000000001      6.704830000000000
H      -0.014610000000000    -10.017440000000001      6.812070000000000
H       0.545270000000000     -8.380380000000001      6.308440000000000
C      -3.345470000000000     -7.658190000000000      8.879339999999999
C      -3.188950000000000     -7.491560000000000     10.245740000000000
C      -2.270630000000000     -6.468280000000000     10.425459999999999
C      -1.891130000000000     -6.069310000000000      9.163000000000000
N      -2.555350000000000     -6.780150000000000      8.241440000000001
C      -0.891770000000000     -4.990880000000000      8.789619999999999
N      -0.599740000000000     -5.062350000000000      7.342190000000000
C       0.378270000000000     -4.152750000000000      6.719090000000000
H      -3.689140000000000     -8.049989999999999     11.025190000000000
H      -3.995800000000000     -8.371280000000000      8.389250000000001
H      -1.911270000000000     -6.072270000000000     11.365380000000000
H      -1.329840000000000     -4.009640000000000      9.061080000000000
H       0.038860000000000     -5.165210000000000      9.361260000000000
C       1.783460000000000     -4.435240000000000      7.286160000000000
C       0.402670000000000     -4.422440000000000      5.204010000000000
C      -0.006820000000000     -2.682040000000000      6.957690000000000
H       2.061970000000000     -5.497390000000000      7.107730000000000
H       2.543120000000000     -3.786510000000000      6.800550000000000
H       1.826760000000000     -4.241970000000000      8.377030000000000
H      -0.593500000000000     -4.227520000000000      4.753720000000000
H       1.147890000000000     -3.766800000000000      4.700380000000000
H       0.677680000000000     -5.478520000000000      4.998510000000000
H      -1.019010000000000     -2.476000000000000      6.548680000000000
H      -0.002610000000000     -2.439870000000000      8.040380000000001
H       0.720930000000000     -2.004990000000000      6.459970000000000
