170

Mg     -0.662980000000000     -0.518220000000000     -0.533340000000000
C       2.047120000000000     -0.793020000000000      1.314460000000000
C       2.608140000000000      0.067370000000000     -0.847550000000000
O       1.657570000000000     -0.581640000000000     -0.031250000000000
C       2.620060000000000      0.430650000000000      2.033220000000000
C       3.834430000000000     -0.793830000000000     -1.106130000000000
H       1.120960000000000     -1.063520000000000      1.858350000000000
H       2.724180000000000     -1.667080000000000      1.396570000000000
H       2.118380000000000      0.248150000000000     -1.823460000000000
H       2.866070000000000      1.077560000000000     -0.473210000000000
H       4.482880000000000     -0.286320000000000     -1.849890000000000
H       3.527880000000000     -1.782760000000000     -1.505450000000000
H       4.405230000000000     -0.936790000000000     -0.168010000000000
H       1.944440000000000      1.295680000000000      1.930960000000000
H       3.621050000000000      0.689560000000000      1.633570000000000
H       2.721830000000000      0.208590000000000      3.114230000000000
H      -0.401300000000000     -2.792900000000000     -1.898340000000000
C      -1.172770000000000     -1.402190000000000     -3.409240000000000
C      -1.155830000000000     -1.985550000000000     -1.985910000000000
C       0.132080000000000     -0.713750000000000     -3.856740000000000
H      -1.411840000000000     -2.221390000000000     -4.118680000000000
H      -1.980270000000000     -0.641060000000000     -3.465040000000000
H      -0.008540000000000     -0.341480000000000     -4.896750000000000
H       0.330000000000000      0.168220000000000     -3.215000000000000
C       1.349210000000000     -1.638510000000000     -3.852340000000000
H      -2.154340000000000     -2.385530000000000     -1.725410000000000
H       1.559750000000000     -1.998510000000000     -2.827090000000000
H       1.181020000000000     -2.509130000000000     -4.519330000000000
H       2.242900000000000     -1.082680000000000     -4.212260000000000
C       0.860730000000000      3.093490000000000     -0.888600000000000
C      -0.196840000000000      2.651280000000000     -1.649900000000000
C      -1.084390000000000      2.019150000000000     -0.796890000000000
C      -0.571450000000000      2.051170000000000      0.437950000000000
N       0.652780000000000      2.748820000000000      0.453910000000000
C      -1.169250000000000      1.400510000000000      1.657050000000000
N      -1.276850000000000     -0.044480000000000      1.421070000000000
C      -1.980440000000000     -0.884760000000000      2.419940000000000
H      -0.290930000000000      2.762990000000000     -2.721710000000000
H       1.733580000000000      3.613340000000000     -1.257200000000000
H      -2.006970000000000      1.531950000000000     -1.089530000000000
H      -2.158910000000000      1.851380000000000      1.852850000000000
H      -0.493740000000000      1.586140000000000      2.518710000000000
C      -3.482200000000000     -0.539960000000000      2.462400000000000
C      -1.823790000000000     -2.361140000000000      2.019990000000000
C      -1.370900000000000     -0.692360000000000      3.829660000000000
H      -3.945870000000000     -0.700690000000000      1.466900000000000
H      -4.007610000000000     -1.177980000000000      3.206710000000000
H      -3.649860000000000      0.512650000000000      2.767550000000000
H      -0.753900000000000     -2.658250000000000      2.015070000000000
H      -2.362040000000000     -3.021760000000000      2.736660000000000
H      -2.241550000000000     -2.534310000000000      1.006130000000000
H      -0.287260000000000     -0.936750000000000      3.827540000000000
H      -1.494210000000000      0.351290000000000      4.187350000000000
H      -1.870400000000000     -1.355130000000000      4.570150000000000
Na     -2.045090000000000      7.591660000000000     13.621760000000000
C      -1.969310000000000      7.026860000000000     16.763629999999999
C      -2.269370000000000      9.342700000000001     16.543089999999999
O      -1.674500000000000      8.179869999999999     15.999290000000000
C      -3.256600000000000      6.368240000000000     16.278050000000000
C      -1.337750000000000     10.022650000000001     17.543240000000001
H      -1.135840000000000      6.305800000000000     16.626460000000002
H      -2.019150000000000      7.236220000000000     17.855869999999999
H      -2.460460000000000     10.047420000000001     15.705830000000001
H      -3.259120000000000      9.140269999999999     17.009300000000000
H      -0.382080000000000     10.305009999999999     17.054839999999999
H      -1.821970000000000     10.943849999999999     17.929359999999999
H      -1.122310000000000      9.349830000000001     18.398650000000000
H      -3.166900000000000      6.095720000000000     15.205660000000000
H      -3.446050000000000      5.446960000000000     16.867000000000001
H      -4.118940000000000      7.053720000000000     16.405860000000001
C      -5.172140000000000      8.817119999999999     13.708640000000001
C      -4.518070000000000      8.259309999999999     11.484050000000000
O      -4.123770000000000      8.441940000000001     12.832810000000000
C      -6.272770000000000      7.763940000000000     13.840990000000000
C      -5.040810000000000      9.533939999999999     10.821960000000001
H      -4.715290000000000      8.929080000000001     14.714340000000000
H      -5.582090000000000      9.816520000000001     13.456820000000000
H      -3.603920000000000      7.960560000000000     10.927099999999999
H      -5.224600000000000      7.411470000000000     11.369389999999999
H      -4.301040000000000     10.353719999999999     10.938150000000000
H      -5.203430000000000      9.344490000000000      9.740200000000000
H      -6.011770000000000      9.840350000000001     11.260870000000001
H      -5.832950000000000      6.784150000000000     14.122730000000001
H      -6.985360000000000      8.079290000000000     14.631959999999999
H      -6.843210000000000      7.661670000000000     12.895910000000001
Na      0.628350000000000      8.714850000000000     15.638560000000000
C       0.783780000000000      7.413270000000000     12.584429999999999
C       0.263410000000000      9.693659999999999     12.539550000000000
O       0.179970000000000      8.488379999999999     13.272640000000001
C       0.983260000000000      6.258110000000000     13.557300000000000
C      -0.784140000000000      9.763430000000000     11.429420000000000
H       0.115110000000000      7.062100000000000     11.772130000000001
H       1.785040000000000      7.682350000000000     12.178680000000000
H       0.058420000000000     10.522819999999999     13.250190000000000
H       1.286950000000000      9.875489999999999     12.143689999999999
H      -1.800790000000000      9.639570000000001     11.855869999999999
H      -0.725820000000000     10.753570000000000     10.930709999999999
H      -0.607070000000000      8.978310000000000     10.666230000000001
H       0.008790000000000      5.949870000000000     13.993029999999999
H       1.429470000000000      5.390440000000000     13.027160000000000
H       1.664260000000000      6.562700000000000     14.379149999999999
C       3.934600000000000      8.688689999999999     15.859220000000001
C       3.044160000000000      7.281530000000000     17.468430000000001
O       2.761400000000000      8.087300000000001     16.350500000000000
C       3.556360000000000      9.566010000000000     14.673209999999999
C       1.742540000000000      6.639510000000000     17.929770000000001
H       4.403630000000000      9.338030000000000     16.632570000000001
H       4.652470000000000      7.916500000000000     15.502400000000000
H       3.754130000000000      6.466850000000000     17.200800000000001
H       3.444110000000000      7.895040000000000     18.306940000000001
H       1.317530000000000      6.018830000000000     17.112079999999999
H       1.925710000000000      5.994080000000000     18.813720000000000
H       1.005510000000000      7.425650000000000     18.202839999999998
H       2.837190000000000     10.350980000000000     14.992660000000001
H       4.459950000000000     10.053160000000000     14.252030000000000
H       3.081510000000000      8.947770000000000     13.883430000000001
Mg     -1.060470000000000      8.073810000000000      5.096110000000000
C      -1.297080000000000      4.208360000000000      5.059040000000000
C       0.937200000000000      4.773420000000000      5.130050000000000
O      -0.314330000000000      5.092620000000000      4.558130000000000
C      -2.520270000000000      4.249630000000000      4.157060000000000
C       1.974420000000000      5.794100000000000      4.683750000000000
H      -0.942910000000000      3.152510000000000      5.068930000000000
H      -1.598010000000000      4.511980000000000      6.084420000000000
H       0.888090000000000      4.792100000000000      6.240990000000000
H       1.276840000000000      3.771960000000000      4.786690000000000
H       1.683540000000000      6.811790000000000      5.014350000000000
H       2.961440000000000      5.544580000000000      5.127600000000000
H       2.064530000000000      5.784590000000000      3.577390000000000
H      -2.244350000000000      3.949530000000000      3.126290000000000
H      -3.300930000000000      3.563990000000000      4.547200000000000
H      -2.940230000000000      5.267010000000000      4.120100000000000
H       1.215040000000000      8.074669999999999      2.693130000000000
C       0.743370000000000      9.995200000000001      3.635840000000000
C       0.334700000000000      8.658210000000000      3.029800000000000
C       1.658740000000000      9.802289999999999      4.851350000000000
H       1.269380000000000     10.581009999999999      2.853820000000000
H      -0.170100000000000     10.547490000000000      3.949740000000000
H       1.114960000000000      9.264139999999999      5.658370000000000
H       2.547670000000000      9.202430000000000      4.560880000000000
C       2.139540000000000     11.147200000000000      5.388990000000000
H      -0.372800000000000      8.807539999999999      2.188520000000000
H       2.706800000000000     11.688459999999999      4.601670000000000
H       1.278270000000000     11.770009999999999      5.711530000000000
H       2.810400000000000     10.985709999999999      6.259090000000000
C       0.345920000000000      6.936490000000000      7.694980000000000
C      -0.173440000000000      6.342250000000000      8.831799999999999
C      -1.551480000000000      6.315080000000000      8.674830000000000
C      -1.812280000000000      6.869120000000000      7.441040000000000
N      -0.658360000000000      7.243280000000000      6.866110000000000
C      -3.155540000000000      7.081150000000000      6.766300000000000
N      -2.973720000000000      7.417920000000000      5.333200000000000
C      -4.076280000000000      8.061930000000000      4.594250000000000
H       0.389940000000000      5.973510000000000      9.675660000000001
H       1.394760000000000      7.119500000000000      7.489800000000000
H      -2.277170000000000      5.921310000000000      9.374750000000001
H      -3.741170000000000      6.140400000000000      6.824810000000000
H      -3.683830000000000      7.883090000000000      7.320020000000000
C      -4.237990000000000      9.528540000000000      5.027750000000000
C      -3.735740000000000      8.033659999999999      3.090070000000000
C      -5.392040000000000      7.286130000000000      4.808880000000000
H      -3.299180000000000     10.092290000000000      4.837340000000000
H      -5.058420000000000     10.010579999999999      4.452280000000000
H      -4.486730000000000      9.608980000000001      6.104110000000000
H      -3.613660000000000      6.992810000000000      2.723470000000000
H      -4.545420000000000      8.508509999999999      2.493080000000000
H      -2.791550000000000      8.582280000000001      2.889150000000000
H      -5.267520000000000      6.225510000000000      4.498740000000000
H      -5.697730000000000      7.305420000000000      5.875390000000000
H      -6.214980000000000      7.731310000000000      4.210250000000000
