170

Mg     -0.080870000000000     -0.474930000000000     -0.899720000000000
C       0.163970000000000      2.500420000000000      0.501950000000000
C      -1.988280000000000      1.554670000000000      0.950760000000000
O      -0.805530000000000      1.517980000000000      0.181560000000000
C       0.501470000000000      2.629890000000000      1.989080000000000
C      -2.825680000000000      2.792880000000000      0.670030000000000
H       1.098240000000000      2.178360000000000      0.001540000000000
H      -0.105680000000000      3.480500000000000      0.059310000000000
H      -2.589020000000000      0.674190000000000      0.652540000000000
H      -1.793220000000000      1.406720000000000      2.031180000000000
H      -3.793590000000000      2.704200000000000      1.205420000000000
H      -3.019490000000000      2.882730000000000     -0.418880000000000
H      -2.299010000000000      3.699650000000000      1.026190000000000
H       0.755540000000000      1.646580000000000      2.418400000000000
H      -0.345970000000000      3.074100000000000      2.548800000000000
H       1.383730000000000      3.289630000000000      2.110440000000000
H      -1.391870000000000      0.267050000000000     -3.101110000000000
C      -2.313910000000000     -1.659760000000000     -2.605990000000000
C      -1.089570000000000     -0.740390000000000     -2.751090000000000
C      -3.351390000000000     -1.218310000000000     -1.554530000000000
H      -2.812000000000000     -1.734700000000000     -3.593740000000000
H      -1.958310000000000     -2.670520000000000     -2.312000000000000
H      -4.181390000000000     -1.960630000000000     -1.550890000000000
H      -2.892650000000000     -1.231330000000000     -0.545400000000000
C      -3.958150000000000      0.157970000000000     -1.827290000000000
H      -0.367890000000000     -1.176950000000000     -3.468090000000000
H      -3.176690000000000      0.941080000000000     -1.792390000000000
H      -4.452900000000000      0.177220000000000     -2.820330000000000
H      -4.716490000000000      0.393390000000000     -1.048340000000000
C      -1.152830000000000     -1.292930000000000      2.803350000000000
C      -1.279430000000000     -2.194250000000000      1.773410000000000
C      -0.097500000000000     -2.175300000000000      1.052590000000000
C       0.712840000000000     -1.268080000000000      1.614790000000000
N       0.116170000000000     -0.692430000000000      2.748030000000000
C       2.069400000000000     -0.866080000000000      1.092700000000000
N       1.918340000000000     -0.327830000000000     -0.263290000000000
C       3.134800000000000     -0.000800000000000     -1.047590000000000
H      -2.159970000000000     -2.788010000000000      1.561240000000000
H      -1.907230000000000     -1.058480000000000      3.539070000000000
H       0.112100000000000     -2.749640000000000      0.161380000000000
H       2.733910000000000     -1.749580000000000      1.108010000000000
H       2.478100000000000     -0.078520000000000      1.761550000000000
C       3.922570000000000     -1.280540000000000     -1.389490000000000
C       2.708840000000000      0.682050000000000     -2.357290000000000
C       4.050470000000000      0.971170000000000     -0.264970000000000
H       3.291900000000000     -1.979820000000000     -1.976930000000000
H       4.828600000000000     -1.032570000000000     -1.985340000000000
H       4.272490000000000     -1.799690000000000     -0.474590000000000
H       2.168640000000000      1.630140000000000     -2.151610000000000
H       3.598670000000000      0.921020000000000     -2.982620000000000
H       2.040910000000000      0.016090000000000     -2.942790000000000
H       3.506880000000000      1.905100000000000     -0.007670000000000
H       4.422890000000000      0.512300000000000      0.674450000000000
H       4.941350000000000      1.248780000000000     -0.870540000000000
Na    -10.055520000000000     -1.146870000000000    -13.115640000000001
C      -6.936400000000000     -0.482060000000000    -13.350070000000001
C      -7.552050000000000      0.198680000000000    -11.191990000000001
O      -7.959310000000000      0.064200000000000    -12.540240000000001
C      -7.017010000000000     -2.005150000000000    -13.371580000000000
C      -6.914750000000000      1.563240000000000    -10.942710000000000
H      -7.087810000000000     -0.109690000000000    -14.385470000000000
H      -5.920110000000000     -0.143820000000000    -13.046390000000001
H      -8.458500000000001      0.112740000000000    -10.555520000000000
H      -6.866860000000000     -0.615800000000000    -10.867039999999999
H      -7.629730000000000      2.376550000000000    -11.185470000000000
H      -6.634570000000000      1.648550000000000     -9.872100000000000
H      -6.001360000000000      1.687960000000000    -11.559960000000000
H      -8.010289999999999     -2.330260000000000    -13.745960000000000
H      -6.231560000000000     -2.408280000000000    -14.043839999999999
H      -6.860070000000000     -2.419690000000000    -12.354960000000000
C      -9.597260000000000     -3.284420000000000    -10.548719999999999
C     -11.749670000000000     -3.553000000000000    -11.537480000000000
O     -10.569580000000000     -2.774100000000000    -11.443680000000001
C      -9.042750000000000     -4.650850000000000    -10.953110000000001
C     -12.537800000000001     -3.629760000000000    -10.229830000000000
H      -8.744529999999999     -2.573920000000000    -10.573250000000000
H      -9.958539999999999     -3.277240000000000     -9.500080000000001
H     -12.404310000000001     -3.043700000000000    -12.276940000000000
H     -11.550979999999999     -4.558500000000000    -11.962510000000000
H     -12.738840000000000     -2.607400000000000     -9.846220000000001
H     -13.504830000000000     -4.142660000000000    -10.414709999999999
H     -11.986789999999999     -4.215280000000000     -9.466559999999999
H      -8.660050000000000     -4.616190000000000    -11.994780000000000
H      -8.209370000000000     -4.920100000000000    -10.272019999999999
H      -9.816979999999999     -5.439200000000000    -10.863210000000000
Na     -8.873799999999999      2.192870000000000    -13.168110000000000
C     -11.578020000000000      0.950090000000000    -14.669029999999999
C     -11.971310000000001      1.471860000000000    -12.421810000000001
O     -11.013059999999999      1.071130000000000    -13.380010000000000
C     -10.450440000000000      0.882280000000000    -15.691240000000001
C     -12.841360000000000      0.303570000000000    -11.962719999999999
H     -12.164540000000001      0.009330000000000    -14.742490000000000
H     -12.212859999999999      1.825380000000000    -14.933800000000000
H     -11.413060000000000      1.845990000000000    -11.536949999999999
H     -12.591120000000000      2.325180000000000    -12.775850000000000
H     -12.204499999999999     -0.510800000000000    -11.560079999999999
H     -13.528570000000000      0.647980000000000    -11.161790000000000
H     -13.452100000000000     -0.087960000000000    -12.801570000000000
H      -9.782230000000000      0.022460000000000    -15.470409999999999
H     -10.871470000000000      0.757040000000000    -16.710909999999998
H      -9.853020000000001      1.817400000000000    -15.664199999999999
C      -9.305850000000000      5.088650000000000    -14.728389999999999
C      -7.305190000000000      4.143880000000000    -15.409689999999999
O      -8.483930000000001      3.948270000000000    -14.667000000000000
C     -10.545480000000000      4.826000000000000    -13.883850000000001
C      -6.476600000000000      2.868930000000000    -15.327190000000000
H      -8.785000000000000      5.978540000000000    -14.308170000000000
H      -9.634969999999999      5.280220000000000    -15.774319999999999
H      -7.538740000000000      4.334090000000000    -16.481480000000001
H      -6.702430000000000      4.976850000000000    -14.982640000000000
H      -7.052730000000000      2.016730000000000    -15.747070000000001
H      -5.535370000000000      2.986040000000000    -15.903330000000000
H      -6.226270000000000      2.644870000000000    -14.267519999999999
H     -10.254550000000000      4.628790000000000    -12.829420000000001
H     -11.223490000000000      5.703850000000000    -13.913900000000000
H     -11.087750000000000      3.940700000000000    -14.275740000000001
Mg     -1.182410000000000     -4.571930000000000    -10.121750000000000
C      -2.167620000000000     -4.734370000000000     -6.915130000000000
C      -0.485530000000000     -3.054890000000000     -7.163390000000000
O      -1.157720000000000     -4.162360000000000     -7.729270000000000
C      -3.205680000000000     -3.745530000000000     -6.379310000000000
C       0.355470000000000     -3.427760000000000     -5.948150000000000
H      -2.721830000000000     -5.442060000000000     -7.563690000000000
H      -1.724350000000000     -5.342000000000000     -6.099960000000000
H       0.207980000000000     -2.672910000000000     -7.937820000000000
H      -1.171980000000000     -2.209280000000000     -6.959380000000000
H       0.939180000000000     -2.540270000000000     -5.625910000000000
H       1.057850000000000     -4.247270000000000     -6.206490000000000
H      -0.292940000000000     -3.747390000000000     -5.108460000000000
H      -3.642100000000000     -3.155630000000000     -7.205670000000000
H      -2.753100000000000     -3.065660000000000     -5.631260000000000
H      -4.024710000000000     -4.303420000000000     -5.882160000000000
H       1.011600000000000     -6.123510000000000     -9.904820000000001
C       1.619080000000000     -4.550070000000000    -11.300240000000001
C       0.598640000000000     -5.571040000000000    -10.773149999999999
C       1.982330000000000     -3.426230000000000    -10.310110000000000
H       2.543420000000000     -5.087760000000000    -11.599750000000000
H       1.187940000000000     -4.065590000000000    -12.202420000000000
H       2.709530000000000     -2.747010000000000    -10.808920000000001
H       1.078210000000000     -2.829790000000000    -10.070720000000000
C       2.623960000000000     -3.925220000000000     -9.015440000000000
H       0.343370000000000     -6.295620000000000    -11.571840000000000
H       1.916300000000000     -4.560100000000000     -8.447419999999999
H       3.545510000000000     -4.503860000000000     -9.233950000000000
H       2.895340000000000     -3.056100000000000     -8.376770000000000
C      -2.042990000000000     -0.767370000000000     -9.391170000000001
C      -1.414790000000000     -1.179100000000000    -10.544400000000000
C      -2.097830000000000     -2.285050000000000    -11.015599999999999
C      -3.095060000000000     -2.552010000000000    -10.167909999999999
N      -3.134950000000000     -1.608360000000000     -9.121689999999999
C      -4.033410000000000     -3.723140000000000    -10.278160000000000
N      -3.253040000000000     -4.965820000000000    -10.192230000000000
C      -3.937240000000000     -6.261010000000000    -10.423220000000001
H      -0.535570000000000     -0.725500000000000    -10.982270000000000
H      -1.742320000000000      0.066500000000000     -8.772320000000001
H      -1.843910000000000     -2.864520000000000    -11.893599999999999
H      -4.576070000000000     -3.649030000000000    -11.240349999999999
H      -4.756850000000000     -3.676500000000000     -9.437250000000001
C      -4.420070000000000     -6.375280000000000    -11.882930000000000
C      -2.943830000000000     -7.399950000000000    -10.140969999999999
C      -5.144980000000000     -6.421670000000000     -9.470450000000000
H      -3.565500000000000     -6.278570000000000    -12.584669999999999
H      -4.908570000000000     -7.360000000000000    -12.054160000000000
H      -5.171400000000000     -5.596340000000000    -12.125550000000000
H      -2.591890000000000     -7.365260000000000     -9.088469999999999
H      -3.424550000000000     -8.389720000000001    -10.310700000000001
H      -2.061610000000000     -7.322870000000000    -10.810269999999999
H      -4.822370000000000     -6.348900000000000     -8.410119999999999
H      -5.914390000000000     -5.644940000000000     -9.656580000000000
H      -5.633620000000000     -7.410160000000000     -9.615460000000001
