125

Mg      0.503920000000000     -0.226760000000000      0.002950000000000
C       0.436320000000000      2.044820000000000     -2.647920000000000
C      -1.283050000000000      0.391920000000000     -2.744960000000000
O      -0.308540000000000      1.055450000000000     -1.962440000000000
C      -0.398770000000000      3.241820000000000     -3.090570000000000
C      -0.694960000000000     -0.417740000000000     -3.897520000000000
H       1.192950000000000      2.420250000000000     -1.925370000000000
H       1.012690000000000      1.625800000000000     -3.494450000000000
H      -1.778390000000000     -0.337940000000000     -2.074330000000000
H      -2.089940000000000      1.077240000000000     -3.074510000000000
H       0.104290000000000     -1.091000000000000     -3.524350000000000
H      -1.497140000000000     -1.033730000000000     -4.354670000000000
H      -0.286930000000000      0.250870000000000     -4.680650000000000
H      -0.957410000000000      3.666590000000000     -2.232500000000000
H       0.278350000000000      4.021760000000000     -3.497870000000000
H      -1.107960000000000      2.948380000000000     -3.889290000000000
H       3.193670000000000      0.770830000000000     -0.721050000000000
C       2.960920000000000     -0.744960000000000     -2.293330000000000
C       2.807840000000000     -0.258900000000000     -0.868760000000000
C       4.436550000000000     -0.817570000000000     -2.644220000000000
H       2.495950000000000     -1.747050000000000     -2.395790000000000
H       2.439780000000000     -0.046570000000000     -2.976440000000000
H       4.887600000000000      0.192480000000000     -2.532020000000000
H       4.941230000000000     -1.521220000000000     -1.946880000000000
C       4.627630000000000     -1.298920000000000     -4.073370000000000
H       3.229510000000000     -0.974830000000000     -0.133280000000000
H       4.189500000000000     -2.312280000000000     -4.197780000000000
H       4.137380000000000     -0.597640000000000     -4.782120000000000
H       5.712490000000000     -1.342360000000000     -4.297490000000000
C      -1.687280000000000      0.770300000000000      4.228920000000000
C      -1.570290000000000     -0.554700000000000      4.588120000000000
C      -1.757800000000000     -1.301430000000000      3.434990000000000
C      -1.952970000000000     -0.432030000000000      2.446710000000000
N      -1.919570000000000      0.868980000000000      2.972720000000000
C      -2.248770000000000     -0.702950000000000      0.983950000000000
N      -1.165270000000000     -1.316390000000000      0.193540000000000
C      -0.828630000000000     -2.746980000000000      0.196930000000000
H      -1.384990000000000     -0.929160000000000      5.587040000000000
H      -1.603660000000000      1.627230000000000      4.881750000000000
H      -1.758230000000000     -2.375610000000000      3.380860000000000
H      -2.429430000000000      0.289840000000000      0.517900000000000
H      -3.191090000000000     -1.267400000000000      0.875160000000000
C      -2.062430000000000     -3.604220000000000      0.485920000000000
C      -0.308070000000000     -3.098240000000000     -1.211000000000000
C       0.314600000000000     -3.029450000000000      1.193530000000000
H      -2.855600000000000     -3.369760000000000     -0.257440000000000
H      -1.813040000000000     -4.681750000000000      0.419760000000000
H      -2.450850000000000     -3.396060000000000      1.498290000000000
H       0.578090000000000     -2.481510000000000     -1.462130000000000
H      -0.008110000000000     -4.166580000000000     -1.273460000000000
H      -1.082540000000000     -2.901790000000000     -1.982480000000000
H       1.238350000000000     -2.478210000000000      0.908340000000000
H       0.063750000000000     -2.725390000000000      2.219030000000000
H       0.557000000000000     -4.113490000000000      1.205680000000000
C       1.066960000000000      1.951810000000000      2.218820000000000
C      -0.587100000000000      2.798420000000000      0.765060000000000
O       0.512480000000000      1.923550000000000      0.918370000000000
C       1.523470000000000      0.548080000000000      2.623050000000000
C      -0.125870000000000      4.234100000000000      0.616030000000000
H       1.952400000000000      2.618440000000000      2.207350000000000
H       0.354690000000000      2.309500000000000      2.993100000000000
H      -1.136090000000000      2.502260000000000     -0.150730000000000
H      -1.330130000000000      2.714210000000000      1.576630000000000
H       0.585240000000000      4.314110000000000     -0.231710000000000
H      -1.006720000000000      4.880890000000000      0.425050000000000
H       0.370190000000000      4.561260000000000      1.551980000000000
H       0.672910000000000     -0.156210000000000      2.656320000000000
H       2.266340000000000      0.147090000000000      1.904930000000000
H       1.984970000000000      0.578600000000000      3.631360000000000
Na     -6.713480000000000     -2.345060000000000      2.181720000000000
C      -5.505920000000000     -3.749080000000000      4.884350000000000
C      -5.109730000000000     -5.077770000000000      3.045560000000000
O      -6.094550000000000     -4.357570000000000      3.754990000000000
C      -6.574570000000000     -2.986000000000000      5.653740000000000
C      -5.745070000000000     -5.717010000000000      1.819140000000000
H      -5.079710000000000     -4.516110000000000      5.568710000000000
H      -4.720800000000000     -3.020720000000000      4.577430000000000
H      -4.302110000000000     -4.398360000000000      2.693010000000000
H      -4.686770000000000     -5.893800000000000      3.674850000000000
H      -6.171860000000000     -4.933660000000000      1.157200000000000
H      -4.977870000000000     -6.286050000000000      1.252390000000000
H      -6.554090000000000     -6.413170000000000      2.127050000000000
H      -7.374920000000000     -3.680340000000000      5.987390000000000
H      -6.122340000000000     -2.504540000000000      6.546640000000000
H      -7.021320000000000     -2.199400000000000      5.009230000000000
Na     -7.617650000000000     -6.249830000000000      4.775920000000000
Mg     -3.208740000000000    -10.748120000000000      6.949830000000000
H      -2.044810000000000    -13.376490000000000      8.066960000000000
C      -1.122710000000000    -11.917450000000001      9.409610000000001
C      -1.583090000000000    -12.368160000000000      8.035760000000000
C      -0.044800000000000    -12.866250000000001      9.925630000000000
H      -0.720250000000000    -10.883590000000000      9.336610000000000
H      -1.995650000000000    -11.910620000000000     10.098599999999999
H      -0.459050000000000    -13.896500000000000      9.982370000000000
H       0.815610000000000    -12.862370000000000      9.221109999999999
C       0.441970000000000    -12.450300000000000     11.305899999999999
H      -0.756220000000000    -12.329070000000000      7.296060000000000
H       0.877630000000000    -11.429250000000000     11.268230000000001
H      -0.399850000000000    -12.465660000000000     12.030340000000001
H       1.222320000000000    -13.162590000000000     11.645410000000000
C      -5.075750000000000    -12.073530000000000      4.756270000000000
C      -6.203700000000000    -11.605990000000000      4.102500000000000
C      -6.457950000000000    -10.333980000000000      4.593610000000000
C      -5.484300000000000    -10.085950000000000      5.535880000000000
N      -4.653600000000000    -11.133770000000000      5.617590000000000
C      -5.307230000000000     -8.837000000000000      6.381590000000000
N      -4.245050000000000     -9.056520000000001      7.386610000000000
C      -3.881350000000000     -8.009490000000000      8.357559999999999
H      -6.775900000000000    -12.130380000000001      3.349240000000000
H      -4.597210000000000    -13.033030000000000      4.607200000000000
H      -7.262580000000000     -9.672180000000001      4.305030000000000
H      -6.263740000000000     -8.626530000000001      6.896170000000000
H      -5.043120000000000     -8.001230000000000      5.701860000000000
C      -5.071380000000000     -7.735110000000000      9.296320000000000
C      -2.697490000000000     -8.510120000000001      9.204950000000000
C      -3.462550000000000     -6.718090000000000      7.634170000000000
H      -5.365570000000000     -8.668530000000001      9.824859999999999
H      -4.805400000000000     -6.969840000000000     10.056270000000000
H      -5.950130000000000     -7.359760000000000      8.734090000000000
H      -1.812630000000000     -8.712669999999999      8.564600000000000
H      -2.408820000000000     -7.748490000000000      9.963509999999999
H      -2.964630000000000     -9.445729999999999      9.741510000000000
H      -2.606780000000000     -6.917140000000000      6.953750000000000
H      -4.302900000000000     -6.307590000000000      7.039710000000000
H      -3.159020000000000     -5.941030000000000      8.368259999999999
