110

Mg      0.132490000000000     -0.532340000000000      0.133110000000000
C      -1.105860000000000     -0.961680000000000     -2.773650000000000
C       1.039400000000000     -1.986780000000000     -2.588980000000000
O       0.218740000000000     -0.879260000000000     -2.284660000000000
C      -1.894550000000000     -2.161560000000000     -2.250090000000000
C       1.411210000000000     -2.025850000000000     -4.062080000000000
H      -1.621680000000000     -0.060610000000000     -2.395940000000000
H      -1.147440000000000     -0.873680000000000     -3.877310000000000
H       1.977210000000000     -1.849210000000000     -2.007440000000000
H       0.617180000000000     -2.950480000000000     -2.237070000000000
H       1.807730000000000     -1.035590000000000     -4.370470000000000
H       2.189180000000000     -2.799650000000000     -4.226380000000000
H       0.521410000000000     -2.279780000000000     -4.672280000000000
H      -1.759510000000000     -2.268670000000000     -1.155490000000000
H      -2.973510000000000     -2.011010000000000     -2.463620000000000
H      -1.568300000000000     -3.091730000000000     -2.755530000000000
H      -0.552580000000000     -2.556640000000000      1.605910000000000
C       1.619320000000000     -2.419700000000000      1.746800000000000
C       0.330630000000000     -2.420500000000000      0.950610000000000
C       1.647280000000000     -1.242330000000000      2.728290000000000
H       1.679300000000000     -3.386180000000000      2.285040000000000
H       2.484320000000000     -2.326560000000000      1.052430000000000
H       1.694930000000000     -0.288050000000000      2.163330000000000
H       0.726740000000000     -1.231790000000000      3.349040000000000
C       2.850900000000000     -1.341860000000000      3.656980000000000
H       0.343960000000000     -3.196130000000000      0.159080000000000
H       2.774180000000000     -2.272110000000000      4.259660000000000
H       3.797110000000000     -1.358480000000000      3.076020000000000
H       2.865790000000000     -0.472920000000000      4.347850000000000
C       2.400120000000000      2.276700000000000      1.404910000000000
C       2.697330000000000      1.529450000000000      0.287630000000000
C       1.570390000000000      1.523300000000000     -0.514210000000000
C       0.611060000000000      2.221850000000000      0.104590000000000
N       1.085560000000000      2.757240000000000      1.318910000000000
C      -0.799120000000000      2.433700000000000     -0.380540000000000
N      -1.588350000000000      1.191540000000000     -0.305110000000000
C      -2.526610000000000      1.027450000000000      0.832500000000000
H       3.636700000000000      1.027000000000000      0.095280000000000
H       3.064560000000000      2.461440000000000      2.236160000000000
H       1.485340000000000      1.017960000000000     -1.464050000000000
H      -0.768560000000000      2.776760000000000     -1.436980000000000
H      -1.257450000000000      3.241120000000000      0.211730000000000
C      -3.627050000000000      2.105450000000000      0.792190000000000
C      -3.204790000000000     -0.349100000000000      0.680620000000000
C      -1.798720000000000      1.056190000000000      2.193750000000000
H      -4.114070000000000      2.114850000000000     -0.206020000000000
H      -4.400560000000000      1.897960000000000      1.562510000000000
H      -3.230750000000000      3.116010000000000      1.007250000000000
H      -2.456560000000000     -1.164950000000000      0.751270000000000
H      -3.959520000000000     -0.518550000000000      1.480120000000000
H      -3.713940000000000     -0.430010000000000     -0.303850000000000
H      -1.081140000000000      0.212820000000000      2.279410000000000
H      -1.247350000000000      2.004980000000000      2.337480000000000
H      -2.530640000000000      0.965700000000000      3.025990000000000
Na     -8.514889999999999      2.004390000000000      7.529320000000000
C      -6.262430000000000      2.983200000000000      9.708170000000001
C      -7.042050000000000      0.881840000000000     10.240980000000000
O      -7.420100000000000      2.202000000000000      9.914249999999999
C      -6.676210000000000      4.407110000000000      9.365580000000000
C      -8.293740000000000      0.039950000000000     10.447179999999999
H      -5.641400000000000      3.023190000000000     10.632130000000000
H      -5.667440000000000      2.588520000000000      8.853669999999999
H      -6.456370000000000      0.421190000000000      9.412979999999999
H      -6.458880000000000      0.862170000000000     11.189700000000000
H      -8.901389999999999      0.023120000000000      9.517490000000000
H      -8.007190000000000     -1.001330000000000     10.706780000000000
H      -8.905900000000001      0.459820000000000     11.273479999999999
H      -7.268460000000000      4.843930000000000     10.197690000000000
H      -5.772070000000000      5.031090000000000      9.201309999999999
H      -7.291090000000000      4.414210000000000      8.440410000000000
Na     -8.430040000000000      3.133300000000000     12.161989999999999
Mg     -2.148750000000000      5.858890000000000      8.724259999999999
H      -0.342580000000000      8.127900000000000      7.699140000000000
C      -1.094060000000000      9.013350000000001      9.561790000000000
C      -1.288270000000000      8.232830000000000      8.268630000000000
C      -0.176100000000000      8.305970000000000     10.572200000000000
H      -0.691680000000000     10.017780000000000      9.314600000000000
H      -2.088900000000000      9.140330000000001     10.041240000000000
H      -0.098800000000000      8.956160000000001     11.470789999999999
H      -0.624660000000000      7.339020000000000     10.884430000000000
C       1.233150000000000      8.045870000000001     10.042070000000001
H      -2.054310000000000      8.713210000000000      7.626340000000000
H       1.209120000000000      7.320130000000000      9.202790000000000
H       1.701660000000000      8.993169999999999      9.702680000000001
H       1.855300000000000      7.607510000000000     10.850980000000000
C      -2.478170000000000      5.193490000000000     11.810660000000000
C      -2.572970000000000      3.988970000000000     12.490159999999999
C      -2.478340000000000      2.984820000000000     11.539090000000000
C      -2.309860000000000      3.614080000000000     10.327190000000000
N      -2.326140000000000      4.947180000000000     10.503769999999999
C      -2.140910000000000      2.980120000000000      8.961490000000000
N      -1.743670000000000      4.008340000000000      7.976510000000000
C      -1.504630000000000      3.656740000000000      6.565550000000000
H      -2.700330000000000      3.856880000000000     13.554880000000001
H      -2.522440000000000      6.182850000000000     12.251730000000000
H      -2.514970000000000      1.916780000000000     11.713210000000000
H      -3.106460000000000      2.508920000000000      8.684550000000000
H      -1.346250000000000      2.212490000000000      9.028420000000001
C      -2.743820000000000      2.988190000000000      5.943800000000000
C      -1.189860000000000      4.946310000000000      5.785430000000000
C      -0.286800000000000      2.717230000000000      6.465710000000000
H      -3.624100000000000      3.662120000000000      6.015100000000000
H      -2.561170000000000      2.756440000000000      4.872490000000000
H      -2.982050000000000      2.033420000000000      6.455860000000000
H      -0.301970000000000      5.459920000000000      6.213720000000000
H      -0.975480000000000      4.715590000000000      4.717860000000000
H      -2.049650000000000      5.649060000000000      5.822580000000000
H       0.609290000000000      3.204280000000000      6.909810000000000
H      -0.467290000000000      1.763910000000000      7.002420000000000
H      -0.063610000000000      2.469840000000000      5.405870000000000
