95

Mg      0.669570000000000     -0.026000000000000      0.175370000000000
H       2.516450000000000      0.555880000000000     -2.113850000000000
C       1.360960000000000     -1.098040000000000     -2.971800000000000
C       2.085690000000000     -0.424270000000000     -1.824200000000000
C       2.357650000000000     -1.406920000000000     -4.081820000000000
H       0.889970000000000     -2.036200000000000     -2.605050000000000
H       0.560260000000000     -0.420750000000000     -3.342530000000000
H       2.825890000000000     -0.458970000000000     -4.425890000000000
H       3.150490000000000     -2.077540000000000     -3.683870000000000
C       1.677460000000000     -2.084570000000000     -5.261070000000000
H       2.845130000000000     -1.089250000000000     -1.362300000000000
H       1.217700000000000     -3.043370000000000     -4.940000000000000
H       0.892470000000000     -1.422040000000000     -5.683520000000000
H       2.435060000000000     -2.292070000000000     -6.044660000000000
C       1.657180000000000      2.322640000000000      2.065220000000000
C       1.037470000000000      2.962970000000000      3.126570000000000
C      -0.215190000000000      2.386240000000000      3.267640000000000
C      -0.312570000000000      1.430630000000000      2.284110000000000
N       0.821850000000000      1.398120000000000      1.569190000000000
C      -1.481940000000000      0.506350000000000      2.005740000000000
N      -1.262590000000000     -0.232680000000000      0.746210000000000
C      -2.277970000000000     -1.169950000000000      0.232770000000000
H       1.450530000000000      3.756300000000000      3.733140000000000
H       2.653970000000000      2.521450000000000      1.689300000000000
H      -0.973500000000000      2.636920000000000      3.996680000000000
H      -2.396860000000000      1.120090000000000      1.918370000000000
H      -1.562370000000000     -0.194800000000000      2.861440000000000
C      -3.550380000000000     -0.391320000000000     -0.151130000000000
C      -1.730720000000000     -1.861800000000000     -1.029200000000000
C      -2.606940000000000     -2.245680000000000      1.282710000000000
H      -3.313110000000000      0.373490000000000     -0.923200000000000
H      -4.324680000000000     -1.075760000000000     -0.556990000000000
H      -3.988330000000000      0.124110000000000      0.726850000000000
H      -0.818360000000000     -2.449810000000000     -0.792920000000000
H      -2.489540000000000     -2.557280000000000     -1.453500000000000
H      -1.476610000000000     -1.113920000000000     -1.810360000000000
H      -1.685970000000000     -2.799530000000000      1.563550000000000
H      -3.044250000000000     -1.792240000000000      2.195590000000000
H      -3.347900000000000     -2.969380000000000      0.880470000000000
Na      2.039560000000000     -6.678700000000000      3.622470000000000
C       0.800050000000000     -8.969780000000000      1.669450000000000
C      -0.528700000000000     -8.699800000000000      3.532210000000000
O       0.793060000000000     -8.901320000000000      3.079410000000000
C       2.226530000000000     -9.193600000000000      1.187350000000000
C      -0.528080000000000     -8.612869999999999      5.051900000000000
H       0.182930000000000     -9.825350000000000      1.311630000000000
H       0.437650000000000     -8.014490000000000      1.225910000000000
H      -0.941360000000000     -7.742900000000000      3.138560000000000
H      -1.179540000000000     -9.555569999999999      3.240740000000000
H       0.101950000000000     -7.761330000000000      5.386450000000000
H      -1.564690000000000     -8.457720000000000      5.419290000000000
H      -0.130000000000000     -9.554050000000000      5.487740000000000
H       2.624820000000000    -10.145189999999999      1.599260000000000
H       2.243710000000000     -9.248170000000000      0.078070000000000
H       2.877180000000000     -8.355219999999999      1.515260000000000
Na      1.345050000000000    -11.369240000000000      3.827610000000000
Mg      1.005090000000000     -4.163870000000000      7.956440000000000
H       0.099510000000000     -4.149120000000000     10.980480000000000
C       0.911510000000000     -2.119190000000000     10.834920000000000
C       0.906240000000000     -3.592430000000000     10.462020000000001
C      -0.410920000000000     -1.414200000000000     10.502750000000001
H       1.095090000000000     -2.045020000000000     11.927070000000001
H       1.744120000000000     -1.609590000000000     10.304880000000001
H      -1.251710000000000     -1.908980000000000     11.035959999999999
H      -0.333270000000000     -0.368220000000000     10.867300000000000
C      -0.716310000000000     -1.368700000000000      9.003980000000000
H       1.892610000000000     -4.052670000000000     10.686470000000000
H      -0.892040000000000     -2.387430000000000      8.603479999999999
H      -1.635250000000000     -0.766080000000000      8.837440000000001
H       0.119630000000000     -0.892570000000000      8.448200000000000
C      -1.851060000000000     -4.819820000000000      6.728010000000000
C      -2.323930000000000     -4.783110000000000      5.426340000000000
C      -1.274460000000000     -4.356210000000000      4.627280000000000
C      -0.214440000000000     -4.130360000000000      5.476690000000000
N      -0.567140000000000     -4.427920000000000      6.734780000000000
C       1.173810000000000     -3.634620000000000      5.119610000000000
N       1.913760000000000     -3.296300000000000      6.353810000000000
C       3.279230000000000     -2.745590000000000      6.293120000000000
H      -3.320150000000000     -5.041370000000000      5.094170000000000
H      -2.409380000000000     -5.116670000000000      7.606520000000000
H      -1.287000000000000     -4.214000000000000      3.556240000000000
H       1.687920000000000     -4.436110000000000      4.552340000000000
H       1.070190000000000     -2.728930000000000      4.493150000000000
C       3.250370000000000     -1.361490000000000      5.615070000000000
C       3.802080000000000     -2.571630000000000      7.730420000000000
C       4.222080000000000     -3.692960000000000      5.530380000000000
H       2.572550000000000     -0.676740000000000      6.171070000000000
H       4.265400000000000     -0.910810000000000      5.594680000000000
H       2.893940000000000     -1.430380000000000      4.567480000000000
H       3.845580000000000     -3.549360000000000      8.256280000000000
H       4.825200000000000     -2.133680000000000      7.725000000000000
H       3.140100000000000     -1.892940000000000      8.308690000000000
H       4.245030000000000     -4.690990000000000      6.017980000000000
H       3.896050000000000     -3.817330000000000      4.477320000000000
H       5.254910000000000     -3.282360000000000      5.514890000000000
