155

Mg      0.521800000000000      0.149070000000000     -0.092420000000000
C       1.128030000000000      0.063890000000000      3.036900000000000
C       2.750390000000000     -1.179900000000000      1.808960000000000
O       1.393090000000000     -0.827660000000000      1.971340000000000
C       1.848410000000000      1.407230000000000      2.925280000000000
C       3.230500000000000     -2.102500000000000      2.917160000000000
H       0.046840000000000      0.284330000000000      2.981720000000000
H       1.272200000000000     -0.415560000000000      4.025280000000000
H       2.814580000000000     -1.740800000000000      0.850910000000000
H       3.414880000000000     -0.301300000000000      1.677160000000000
H       2.523510000000000     -2.951990000000000      3.024260000000000
H       4.237230000000000     -2.493210000000000      2.662490000000000
H       3.295530000000000     -1.546200000000000      3.873650000000000
H       1.755430000000000      1.814900000000000      1.899120000000000
H       1.392930000000000      2.126510000000000      3.637740000000000
H       2.920010000000000      1.296360000000000      3.183210000000000
H       1.827560000000000      2.149970000000000     -1.108090000000000
C       2.404110000000000      0.401610000000000     -2.277030000000000
C       2.142330000000000      1.098140000000000     -0.957550000000000
C       1.122480000000000      0.333440000000000     -3.115380000000000
H       3.193270000000000      0.972590000000000     -2.804850000000000
H       2.760790000000000     -0.635160000000000     -2.084890000000000
H       0.386550000000000     -0.331110000000000     -2.616500000000000
H       0.668130000000000      1.341810000000000     -3.213260000000000
C       1.418490000000000     -0.196980000000000     -4.512580000000000
H       3.028870000000000      1.054740000000000     -0.293880000000000
H       2.114370000000000      0.497850000000000     -5.029740000000000
H       1.878450000000000     -1.206410000000000     -4.462100000000000
H       0.477840000000000     -0.257130000000000     -5.099190000000000
C      -1.559690000000000     -2.252190000000000     -2.218950000000000
C      -0.535890000000000     -2.680380000000000     -1.405280000000000
C      -0.738200000000000     -2.115830000000000     -0.158990000000000
C      -1.834720000000000     -1.350870000000000     -0.217600000000000
N      -2.424700000000000     -1.419080000000000     -1.495470000000000
C      -2.399970000000000     -0.506240000000000      0.894110000000000
N      -1.543540000000000      0.660320000000000      1.174010000000000
C      -1.954890000000000      1.977170000000000      0.627560000000000
H       0.282370000000000     -3.322320000000000     -1.705400000000000
H      -1.682380000000000     -2.501000000000000     -3.262610000000000
H      -0.099320000000000     -2.257490000000000      0.699230000000000
H      -2.476210000000000     -1.125640000000000      1.813480000000000
H      -3.422500000000000     -0.202090000000000      0.620330000000000
C      -3.304880000000000      2.418190000000000      1.225810000000000
C      -0.888920000000000      3.009600000000000      1.047840000000000
C      -2.030250000000000      1.967170000000000     -0.914330000000000
H      -3.261400000000000      2.375810000000000      2.334810000000000
H      -3.541810000000000      3.459840000000000      0.919710000000000
H      -4.144040000000000      1.787410000000000      0.875500000000000
H       0.095480000000000      2.761890000000000      0.600420000000000
H      -1.160960000000000      4.033400000000000      0.707890000000000
H      -0.772750000000000      3.027530000000000      2.152820000000000
H      -1.033710000000000      1.763060000000000     -1.360500000000000
H      -2.743220000000000      1.203250000000000     -1.278350000000000
H      -2.376830000000000      2.954100000000000     -1.292440000000000
Na    -11.424149999999999     -8.495050000000001     -3.843160000000000
C     -12.179069999999999     -5.534680000000000     -4.769430000000000
C     -11.469239999999999     -5.337490000000000     -2.542230000000000
O     -12.133459999999999     -6.146010000000000     -3.494730000000000
C     -10.948390000000000     -5.902240000000000     -5.592330000000000
C     -12.447929999999999     -4.407520000000000     -1.829580000000000
H     -13.078110000000001     -5.916780000000000     -5.297910000000000
H     -12.301640000000001     -4.429730000000000     -4.712050000000000
H     -11.012440000000000     -6.011970000000000     -1.786890000000000
H     -10.630890000000001     -4.754580000000000     -2.984130000000000
H     -13.236330000000001     -4.994460000000000     -1.314090000000000
H     -11.900940000000000     -3.808460000000000     -1.071630000000000
H     -12.926769999999999     -3.714600000000000     -2.551660000000000
H     -10.878700000000000     -7.004250000000000     -5.706680000000000
H     -11.025399999999999     -5.442190000000000     -6.599290000000000
H     -10.025320000000001     -5.530520000000000     -5.102850000000000
C      -8.210750000000001     -7.707300000000000     -3.244610000000000
C      -8.518710000000000    -10.067340000000000     -3.385300000000000
O      -9.123749999999999     -8.788970000000001     -3.300370000000000
C      -7.342930000000000     -7.568050000000000     -4.495650000000000
C      -7.680450000000000    -10.428599999999999     -2.159420000000000
H      -8.823270000000001     -6.783890000000000     -3.176480000000000
H      -7.602390000000000     -7.728370000000000     -2.317300000000000
H      -9.348459999999999    -10.804790000000001     -3.435420000000000
H      -7.951450000000000    -10.196899999999999     -4.330160000000000
H      -8.285750000000000    -10.308460000000000     -1.236400000000000
H      -7.350390000000000    -11.485429999999999     -2.240000000000000
H      -6.772600000000000     -9.795280000000000     -2.097920000000000
H      -7.982550000000000     -7.521260000000000     -5.401930000000000
H      -6.751120000000000     -6.632480000000000     -4.425890000000000
H      -6.628790000000000     -8.411530000000001     -4.582490000000000
Na    -14.210490000000000     -6.790910000000000     -2.497930000000000
C     -14.003840000000000     -9.997590000000001     -3.356570000000000
C     -13.118750000000000     -9.595590000000000     -1.227260000000000
O     -13.367720000000000     -9.061240000000000     -2.511570000000000
C     -14.565060000000001     -9.260570000000000     -4.566260000000000
C     -11.883369999999999    -10.493690000000001     -1.212140000000000
H     -13.267120000000000    -10.744750000000000     -3.721740000000000
H     -14.856690000000000    -10.506539999999999     -2.853740000000000
H     -12.921430000000001     -8.738200000000001     -0.548590000000000
H     -14.006589999999999    -10.119260000000001     -0.808980000000000
H     -10.998740000000000     -9.932000000000000     -1.576570000000000
H     -11.686909999999999    -10.832680000000000     -0.173430000000000
H     -12.037720000000000    -11.389279999999999     -1.847770000000000
H     -13.751329999999999     -8.728669999999999     -5.104330000000000
H     -15.042439999999999     -9.982880000000000     -5.261310000000000
H     -15.326160000000000     -8.519700000000000     -4.243850000000000
C     -17.460229999999999     -7.116070000000000     -1.931880000000000
C     -17.127720000000000     -5.623680000000000     -3.670960000000000
O     -16.513310000000001     -6.540960000000000     -2.799110000000000
C     -16.729160000000000     -8.073010000000000     -0.999640000000000
C     -16.057590000000001     -5.063140000000000     -4.598210000000000
H     -17.954229999999999     -6.337280000000000     -1.308070000000000
H     -18.214110000000002     -7.700960000000000     -2.505050000000000
H     -17.897610000000000     -6.127060000000000     -4.298100000000000
H     -17.572839999999999     -4.775820000000000     -3.103110000000000
H     -15.593320000000000     -5.887750000000000     -5.180420000000000
H     -16.505659999999999     -4.332560000000000     -5.303190000000000
H     -15.267139999999999     -4.554540000000000     -4.004640000000000
H     -15.964890000000000     -7.522390000000000     -0.409640000000000
H     -17.446539999999999     -8.553920000000000     -0.303010000000000
H     -16.221509999999999     -8.862010000000000     -1.592210000000000
Mg     -6.583590000000000     -2.645530000000000      1.929630000000000
H      -3.975180000000000     -4.044690000000000      1.063130000000000
C      -5.056870000000000     -3.978400000000000     -0.835710000000000
C      -5.002900000000000     -4.178810000000000      0.667020000000000
C      -4.191350000000000     -5.029520000000000     -1.524100000000000
H      -6.111270000000000     -4.066950000000000     -1.177140000000000
H      -4.692560000000000     -2.956510000000000     -1.075800000000000
H      -3.143410000000000     -4.936450000000000     -1.163940000000000
H      -4.572490000000000     -6.042630000000000     -1.268540000000000
C      -4.214260000000000     -4.858600000000000     -3.035430000000000
H      -5.421360000000000     -5.164280000000000      0.960870000000000
H      -5.251070000000000     -4.962050000000000     -3.417390000000000
H      -3.821180000000000     -3.859340000000000     -3.315410000000000
H      -3.577550000000000     -5.640200000000000     -3.499370000000000
C      -5.745770000000000     -2.133230000000000      4.942610000000000
C      -6.197450000000000     -1.223070000000000      5.885710000000000
C      -7.174760000000000     -0.458560000000000      5.267070000000000
C      -7.268940000000000     -0.920680000000000      3.974520000000000
N      -6.407610000000000     -1.938430000000000      3.795960000000000
C      -8.182090000000001     -0.424740000000000      2.870410000000000
N      -7.837070000000000     -1.082660000000000      1.592680000000000
C      -8.557250000000000     -0.765190000000000      0.347390000000000
H      -5.857670000000000     -1.129250000000000      6.906950000000000
H      -4.984010000000000     -2.889650000000000      5.095290000000000
H      -7.746050000000000      0.349100000000000      5.707330000000000
H      -8.044840000000001      0.669260000000000      2.771090000000000
H      -9.226770000000000     -0.655840000000000      3.164700000000000
C      -8.301670000000000      0.703780000000000     -0.040290000000000
C      -8.019980000000000     -1.667020000000000     -0.778680000000000
C     -10.066290000000000     -1.021250000000000      0.509360000000000
H      -7.210900000000000      0.882830000000000     -0.165530000000000
H      -8.811170000000001      0.953670000000000     -0.995160000000000
H      -8.682840000000001      1.397680000000000      0.735850000000000
H      -8.192850000000000     -2.738480000000000     -0.541270000000000
H      -8.531050000000000     -1.439230000000000     -1.740770000000000
H      -6.929330000000000     -1.509970000000000     -0.922420000000000
H     -10.249320000000001     -2.080470000000000      0.791640000000000
H     -10.500730000000001     -0.363900000000000      1.290030000000000
H     -10.601080000000000     -0.811440000000000     -0.441930000000000
