170

Mg      0.188160000000000     -0.520630000000000     -0.001520000000000
C       1.306100000000000      0.422360000000000     -2.832650000000000
C       2.987840000000000     -0.704860000000000     -1.571910000000000
O       1.910490000000000      0.207070000000000     -1.572350000000000
C       0.725330000000000     -0.837680000000000     -3.473490000000000
C       4.219470000000000     -0.123260000000000     -2.245970000000000
H       0.452560000000000      1.098140000000000     -2.644000000000000
H       1.969030000000000      0.983300000000000     -3.520730000000000
H       3.241150000000000     -0.887260000000000     -0.504550000000000
H       2.715730000000000     -1.699580000000000     -1.980910000000000
H       4.436770000000000      0.878710000000000     -1.819590000000000
H       5.087150000000000     -0.792230000000000     -2.070980000000000
H       4.049990000000000     -0.037110000000000     -3.337950000000000
H       0.140970000000000     -1.417830000000000     -2.732000000000000
H       0.053940000000000     -0.546840000000000     -4.308380000000000
H       1.534450000000000     -1.472600000000000     -3.884970000000000
H      -0.717180000000000     -2.937410000000000     -0.262310000000000
C       0.701420000000000     -3.003030000000000      1.393060000000000
C       0.301260000000000     -2.583500000000000     -0.006400000000000
C      -0.229670000000000     -2.370780000000000      2.434010000000000
H       0.651640000000000     -4.108870000000000      1.436320000000000
H       1.743640000000000     -2.669350000000000      1.596720000000000
H      -0.082240000000000     -1.270710000000000      2.445760000000000
H      -1.291240000000000     -2.575430000000000      2.181040000000000
C       0.049920000000000     -2.934000000000000      3.821740000000000
H       1.031530000000000     -2.938790000000000     -0.760480000000000
H      -0.149040000000000     -4.027110000000000      3.821760000000000
H       1.105460000000000     -2.753440000000000      4.115440000000000
H      -0.619670000000000     -2.452650000000000      4.565060000000000
C       0.195190000000000      1.340130000000000      3.309190000000000
C       1.356200000000000      1.123370000000000      2.592810000000000
C       1.102080000000000      1.526410000000000      1.296620000000000
C      -0.165170000000000      1.931410000000000      1.269780000000000
N      -0.721570000000000      1.830290000000000      2.553660000000000
C      -0.934610000000000      2.418410000000000      0.066230000000000
N      -1.212940000000000      1.320510000000000     -0.876720000000000
C      -2.575630000000000      0.733390000000000     -0.883340000000000
H       2.275660000000000      0.687670000000000      2.967450000000000
H       0.043910000000000      1.124190000000000      4.354060000000000
H       1.794770000000000      1.493690000000000      0.472120000000000
H      -0.329220000000000      3.191290000000000     -0.453300000000000
H      -1.861390000000000      2.904480000000000      0.410520000000000
C      -3.619300000000000      1.784900000000000     -1.306570000000000
C      -2.591690000000000     -0.399190000000000     -1.930500000000000
C      -2.950200000000000      0.126910000000000      0.485870000000000
H      -3.319170000000000      2.253510000000000     -2.267820000000000
H      -4.615100000000000      1.309790000000000     -1.440140000000000
H      -3.745650000000000      2.577870000000000     -0.545170000000000
H      -1.888170000000000     -1.208030000000000     -1.645440000000000
H      -3.603220000000000     -0.853890000000000     -2.019420000000000
H      -2.292250000000000     -0.015890000000000     -2.929680000000000
H      -2.272600000000000     -0.713460000000000      0.747150000000000
H      -2.897520000000000      0.884940000000000      1.290740000000000
H      -3.989990000000000     -0.267440000000000      0.464420000000000
Na     -0.524320000000000      7.325340000000000      6.287960000000000
C      -1.827120000000000      4.630250000000000      5.174800000000000
C      -1.970520000000000      6.177190000000000      3.417850000000000
O      -2.004610000000000      5.987560000000000      4.819340000000000
C      -0.347920000000000      4.306170000000000      5.355350000000000
C      -3.365820000000000      6.053820000000000      2.811260000000000
H      -2.340970000000000      4.463490000000000      6.145180000000000
H      -2.300800000000000      3.930070000000000      4.450330000000000
H      -1.593570000000000      7.204440000000000      3.225530000000000
H      -1.262490000000000      5.486360000000000      2.908310000000000
H      -4.051510000000000      6.803790000000000      3.257730000000000
H      -3.308680000000000      6.235110000000000      1.717700000000000
H      -3.779000000000000      5.038430000000000      2.981720000000000
H       0.096540000000000      4.961650000000000      6.133040000000000
H      -0.237930000000000      3.249980000000000      5.675280000000000
H       0.202750000000000      4.448370000000000      4.403150000000000
C       1.909490000000000      7.347750000000000      3.973910000000000
C       2.421430000000000      8.809400000000000      5.787820000000000
O       1.452910000000000      7.997190000000000      5.147260000000000
C       3.043220000000000      6.351900000000000      4.220780000000000
C       2.889640000000000      9.989400000000000      4.936510000000000
H       1.049950000000000      6.762280000000000      3.585120000000000
H       2.160730000000000      8.072540000000000      3.172750000000000
H       1.927270000000000      9.238500000000000      6.686060000000000
H       3.272820000000000      8.212619999999999      6.175290000000000
H       2.014600000000000     10.574700000000000      4.583620000000000
H       3.541110000000000     10.647290000000000      5.549160000000000
H       3.483090000000000      9.641420000000000      4.067040000000000
H       2.748740000000000      5.623520000000000      5.005340000000000
H       3.255640000000000      5.801330000000000      3.280210000000000
H       3.973740000000000      6.873480000000000      4.522750000000000
Na     -3.978140000000000      7.091650000000000      5.598420000000000
C      -2.510750000000000      8.603440000000001      8.167909999999999
C      -2.529550000000000      9.949529999999999      6.254550000000000
O      -2.512970000000000      8.628410000000001      6.756010000000000
C      -2.856490000000000      7.194990000000000      8.634250000000000
C      -1.147470000000000     10.599220000000001      6.303850000000000
H      -1.497970000000000      8.848490000000000      8.548030000000001
H      -3.269490000000000      9.292710000000000      8.602390000000000
H      -2.837160000000000      9.890190000000000      5.188530000000000
H      -3.293300000000000     10.581590000000000      6.759080000000000
H      -0.415520000000000      9.982080000000000      5.743360000000000
H      -1.197120000000000     11.604710000000001      5.835860000000000
H      -0.802090000000000     10.719340000000001      7.351000000000000
H      -2.125880000000000      6.464510000000000      8.225470000000000
H      -2.829330000000000      7.146870000000000      9.743280000000000
H      -3.874250000000000      6.916460000000000      8.289960000000001
C      -6.961630000000000      7.626890000000000      6.938230000000000
C      -6.574570000000000      5.347640000000000      6.803340000000000
O      -6.017670000000000      6.628520000000000      6.635470000000000
C      -6.306930000000000      8.982790000000000      6.709480000000000
C      -5.496290000000000      4.318650000000000      6.490490000000000
H      -7.847550000000000      7.554360000000000      6.267720000000000
H      -7.267990000000000      7.567290000000000      8.006650000000000
H      -6.903460000000000      5.192890000000000      7.855620000000000
H      -7.420490000000000      5.188710000000000      6.097220000000000
H      -4.635940000000000      4.452070000000000      7.180780000000000
H      -5.899430000000000      3.291890000000000      6.611940000000000
H      -5.139840000000000      4.445610000000000      5.445190000000000
H      -5.986010000000000      9.078130000000000      5.649600000000000
H      -7.020500000000000      9.798880000000000      6.946100000000000
H      -5.415520000000000      9.085760000000001      7.362340000000000
Mg      2.202340000000000     14.233400000000000     10.618740000000001
C       3.261160000000000     11.794409999999999     13.428760000000000
C       1.153010000000000     12.577840000000000     13.938350000000000
O       2.426530000000000     12.935490000000000     13.442430000000000
C       4.713810000000000     12.231479999999999     13.321569999999999
C       0.217710000000000     13.775160000000000     13.846520000000000
H       3.174360000000000     11.202159999999999     14.367810000000000
H       3.015260000000000     11.150850000000000     12.557539999999999
H       0.710690000000000     11.745630000000000     13.348050000000001
H       1.221640000000000     12.282450000000001     15.007920000000000
H       0.108230000000000     14.100910000000001     12.792350000000001
H      -0.783760000000000     13.499870000000000     14.239870000000000
H       0.620440000000000     14.618130000000001     14.446080000000000
H       4.985360000000000     12.872030000000001     14.185700000000001
H       5.375520000000000     11.340780000000001     13.299149999999999
H       4.877960000000000     12.806760000000001     12.396940000000001
H       1.252220000000000     16.527709999999999     12.803780000000000
C       0.840550000000000     16.919490000000000     10.687870000000000
C       1.750150000000000     16.449750000000002     11.816459999999999
C      -0.445070000000000     16.085619999999999     10.621219999999999
H       0.592260000000000     17.986010000000000     10.867520000000001
H       1.384200000000000     16.831520000000001      9.721080000000001
H      -0.202430000000000     15.026300000000001     10.385520000000000
H      -0.967050000000000     16.120840000000001     11.601369999999999
C      -1.389880000000000     16.627540000000000      9.552280000000000
H       2.701370000000000     17.020499999999998     11.818619999999999
H      -1.662160000000000     17.679140000000000      9.786000000000000
H      -0.910990000000000     16.588590000000000      8.550860000000000
H      -2.318840000000000     16.019530000000000      9.528890000000001
C       0.090620000000000     11.877269999999999     10.781580000000000
C       0.184070000000000     10.542380000000000     10.433479999999999
C       1.463620000000000     10.343000000000000      9.934979999999999
C       2.103550000000000     11.561000000000000     10.024900000000001
N       1.266320000000000     12.473599999999999     10.529510000000000
C       3.527670000000000     11.906920000000000      9.619780000000000
N       3.915540000000000     13.231909999999999     10.163270000000001
C       5.061380000000000     13.949719999999999      9.572060000000000
H      -0.595000000000000      9.799930000000000     10.532209999999999
H      -0.775630000000000     12.373130000000000     11.200699999999999
H       1.880330000000000      9.416250000000000      9.566700000000001
H       4.217930000000000     11.148600000000000     10.042360000000000
H       3.575310000000000     11.879260000000000      8.513220000000000
C       4.697660000000000     14.506240000000000      8.185480000000000
C       5.420940000000000     15.133990000000001     10.492820000000000
C       6.287360000000000     13.018789999999999      9.477090000000000
H       3.836920000000000     15.205019999999999      8.264350000000000
H       5.560630000000000     15.061090000000000      7.756370000000000
H       4.431520000000000     13.695440000000000      7.479320000000000
H       5.698370000000000     14.785030000000001     11.509580000000000
H       6.285220000000000     15.703049999999999     10.084440000000001
H       4.563180000000000     15.832160000000000     10.590640000000000
H       6.542200000000000     12.615390000000000     10.481529999999999
H       6.088750000000000     12.164809999999999      8.796980000000000
H       7.170460000000000     13.567620000000000      9.086280000000000
