125

Mg     -0.081070000000000     -0.475050000000000     -0.897340000000000
C       0.164120000000000      2.500760000000000      0.503240000000000
C      -1.988200000000000      1.555110000000000      0.951770000000000
O      -0.805330000000000      1.518310000000000      0.182760000000000
C       0.501850000000000      2.629910000000000      1.990460000000000
C      -2.825650000000000      2.793220000000000      0.670610000000000
H       1.098300000000000      2.178950000000000      0.002470000000000
H      -0.105710000000000      3.480860000000000      0.060650000000000
H      -2.588900000000000      0.674610000000000      0.653550000000000
H      -1.793260000000000      1.407310000000000      2.032240000000000
H      -3.793610000000000      2.704640000000000      1.205930000000000
H      -3.019490000000000      2.882770000000000     -0.418350000000000
H      -2.299090000000000      3.700160000000000      1.026480000000000
H       0.756400000000000      1.646600000000000      2.419590000000000
H      -0.345680000000000      3.073680000000000      2.550370000000000
H       1.383810000000000      3.290070000000000      2.111800000000000
H      -1.392570000000000      0.268460000000000     -3.099490000000000
C      -2.314020000000000     -1.659310000000000     -2.604870000000000
C      -1.090170000000000     -0.738740000000000     -2.748820000000000
C      -3.351980000000000     -1.217760000000000     -1.553900000000000
H      -2.810620000000000     -1.737600000000000     -3.594290000000000
H      -1.957740000000000     -2.669260000000000     -2.308920000000000
H      -4.181710000000000     -1.960320000000000     -1.549960000000000
H      -2.893090000000000     -1.230330000000000     -0.544800000000000
C      -3.958730000000000      0.158430000000000     -1.826890000000000
H      -0.367500000000000     -1.174700000000000     -3.465090000000000
H      -3.177270000000000      0.941570000000000     -1.792000000000000
H      -4.453360000000000      0.177530000000000     -2.819950000000000
H      -4.717030000000000      0.393830000000000     -1.047950000000000
C      -1.152740000000000     -1.292530000000000      2.804610000000000
C      -1.278880000000000     -2.194350000000000      1.774920000000000
C      -0.096500000000000     -2.175310000000000      1.055310000000000
C       0.713700000000000     -1.268410000000000      1.617200000000000
N       0.116180000000000     -0.692510000000000      2.750980000000000
C       2.069940000000000     -0.866160000000000      1.094990000000000
N       1.918470000000000     -0.327830000000000     -0.261460000000000
C       3.134640000000000     -0.000800000000000     -1.046290000000000
H      -2.159400000000000     -2.787530000000000      1.561900000000000
H      -1.908900000000000     -1.057760000000000      3.538420000000000
H       0.113340000000000     -2.749610000000000      0.163650000000000
H       2.734290000000000     -1.749860000000000      1.109600000000000
H       2.479090000000000     -0.078780000000000      1.763520000000000
C       3.922500000000000     -1.280440000000000     -1.388640000000000
C       2.708610000000000      0.682200000000000     -2.356070000000000
C       4.050540000000000      0.971200000000000     -0.264150000000000
H       3.291780000000000     -1.979770000000000     -1.975960000000000
H       4.828240000000000     -1.032380000000000     -1.984940000000000
H       4.272790000000000     -1.799650000000000     -0.473930000000000
H       2.168380000000000      1.630290000000000     -2.150570000000000
H       3.598390000000000      0.921240000000000     -2.981520000000000
H       2.040820000000000      0.016340000000000     -2.941730000000000
H       3.506940000000000      1.905140000000000     -0.006940000000000
H       4.423120000000000      0.512370000000000      0.675210000000000
H       4.941220000000000      1.248700000000000     -0.870060000000000
Na     -1.828970000000000      7.131650000000000     11.526510000000000
C      -0.156300000000000      4.468680000000000     12.476390000000000
C      -1.606250000000000      3.940110000000000     10.766870000000001
O      -1.489210000000000      4.572130000000000     12.023050000000000
C      -0.041680000000000      5.137640000000000     13.838830000000000
C      -3.041300000000000      4.063100000000000     10.276070000000001
H       0.141450000000000      3.401580000000000     12.595250000000000
H       0.538820000000000      4.991670000000000     11.780680000000000
H      -0.945740000000000      4.428220000000000     10.014040000000000
H      -1.372870000000000      2.856120000000000     10.851500000000000
H      -3.320200000000000      5.133170000000000     10.172570000000000
H      -3.142640000000000      3.567690000000000      9.287020000000000
H      -3.733520000000000      3.574760000000000     10.994550000000000
H      -0.713870000000000      4.637450000000000     14.568140000000000
H       1.003890000000000      5.065590000000000     14.206239999999999
H      -0.322540000000000      6.209730000000000     13.763050000000000
Na     -2.827150000000000      2.969840000000000     13.639730000000000
Mg      2.360850000000000      0.440230000000000      8.807370000000001
C       4.727240000000000      2.583310000000000      9.244389999999999
C       3.633170000000000      2.904830000000000      7.152200000000000
O       4.154200000000000      1.988740000000000      8.094049999999999
C       3.752100000000000      3.427300000000000     10.067069999999999
C       4.732200000000000      3.654900000000000      6.412810000000000
H       5.043070000000000      1.745370000000000      9.895870000000000
H       5.658660000000000      3.133980000000000      9.004650000000000
H       3.074390000000000      2.304670000000000      6.401630000000000
H       2.880180000000000      3.591330000000000      7.589450000000000
H       5.448510000000000      2.929430000000000      5.972950000000000
H       4.280770000000000      4.260460000000000      5.599890000000000
H       5.267850000000000      4.337720000000000      7.102260000000000
H       2.812930000000000      2.868590000000000     10.246630000000000
H       4.216740000000000      3.673930000000000     11.044560000000001
H       3.519860000000000      4.379950000000000      9.551940000000000
H       0.107750000000000      1.432710000000000      9.711309999999999
C      -0.292700000000000      0.839770000000000      7.657750000000000
C       0.568840000000000      1.512710000000000      8.707380000000001
C      -0.418220000000000     -0.658280000000000      7.954640000000000
H      -1.287790000000000      1.329920000000000      7.665010000000000
H       0.176130000000000      0.970440000000000      6.657040000000000
H       0.577610000000000     -1.141450000000000      7.856680000000000
H      -0.783250000000000     -0.816590000000000      8.991820000000001
C      -1.395720000000000     -1.321600000000000      6.993700000000000
H       0.750640000000000      2.577420000000000      8.455510000000000
H      -2.404160000000000     -0.873580000000000      7.122930000000000
H      -1.064010000000000     -1.185270000000000      5.943380000000000
H      -1.458470000000000     -2.407720000000000      7.214700000000000
C       2.553210000000000     -3.042520000000000      7.074190000000000
C       2.990510000000000     -1.880720000000000      6.476550000000000
C       3.816640000000000     -1.241110000000000      7.383150000000000
C       3.868980000000000     -1.974370000000000      8.497740000000000
N       3.102880000000000     -3.153520000000000      8.357600000000000
C       4.630440000000000     -1.644020000000000      9.751790000000000
N       4.041270000000000     -0.488160000000000     10.454190000000001
C       3.185990000000000     -0.771250000000000     11.633749999999999
H       2.719720000000000     -1.539610000000000      5.486580000000000
H       1.881310000000000     -3.765100000000000      6.631750000000000
H       4.323370000000000     -0.301300000000000      7.213390000000000
H       5.680450000000000     -1.404000000000000      9.478970000000000
H       4.657640000000000     -2.540040000000000     10.392049999999999
C       4.008860000000000     -1.424150000000000     12.763890000000000
C       2.648900000000000      0.573910000000000     12.160980000000000
C       1.974720000000000     -1.655210000000000     11.267490000000000
H       4.890320000000000     -0.793150000000000     13.006910000000000
H       3.389980000000000     -1.534520000000000     13.680080000000000
H       4.363420000000000     -2.438160000000000     12.498360000000000
H       2.011680000000000      1.067500000000000     11.399649999999999
H       2.026380000000000      0.426690000000000     13.071360000000000
H       3.485410000000000      1.258670000000000     12.418670000000001
H       1.339140000000000     -1.156190000000000     10.505380000000001
H       2.294160000000000     -2.638750000000000     10.872260000000001
H       1.346580000000000     -1.843470000000000     12.165480000000001
