95

Mg      0.264330000000000      0.973670000000000      0.053650000000000
H       1.617520000000000      1.711010000000000     -2.536690000000000
C       3.331500000000000      1.691720000000000     -1.152290000000000
C       1.894910000000000      2.040200000000000     -1.514680000000000
C       3.601580000000000      0.178820000000000     -1.078410000000000
H       4.005030000000000      2.168170000000000     -1.893560000000000
H       3.547680000000000      2.118950000000000     -0.149020000000000
H       4.675850000000000      0.041020000000000     -0.826960000000000
H       2.998800000000000     -0.281170000000000     -0.266620000000000
C       3.310240000000000     -0.560970000000000     -2.382610000000000
H       1.691710000000000      3.123510000000000     -1.390690000000000
H       2.225030000000000     -0.532230000000000     -2.613820000000000
H       3.882900000000000     -0.110960000000000     -3.219790000000000
H       3.606220000000000     -1.626500000000000     -2.276620000000000
C       1.608430000000000     -0.851530000000000      2.279880000000000
C       1.077890000000000     -1.841110000000000      3.092040000000000
C      -0.264050000000000     -1.954070000000000      2.763250000000000
C      -0.492030000000000     -1.044080000000000      1.757910000000000
N       0.640340000000000     -0.380800000000000      1.479890000000000
C      -1.798570000000000     -0.758420000000000      1.044730000000000
N      -1.554230000000000      0.092460000000000     -0.137540000000000
C      -2.664550000000000      0.482250000000000     -1.025880000000000
H       1.605080000000000     -2.411950000000000      3.843200000000000
H       2.633610000000000     -0.500470000000000      2.283380000000000
H      -0.990350000000000     -2.627140000000000      3.198200000000000
H      -2.467730000000000     -0.248120000000000      1.768190000000000
H      -2.238500000000000     -1.719260000000000      0.721450000000000
C      -3.782700000000000      1.189240000000000     -0.238580000000000
C      -2.127410000000000      1.445990000000000     -2.100550000000000
C      -3.220880000000000     -0.771260000000000     -1.728390000000000
H      -3.383890000000000      2.091350000000000      0.271140000000000
H      -4.601130000000000      1.502040000000000     -0.922580000000000
H      -4.224810000000000      0.513650000000000      0.522100000000000
H      -1.308920000000000      0.971680000000000     -2.683800000000000
H      -2.937460000000000      1.730040000000000     -2.809610000000000
H      -1.732520000000000      2.375210000000000     -1.636870000000000
H      -2.415430000000000     -1.273540000000000     -2.308250000000000
H      -3.627380000000000     -1.497730000000000     -0.996500000000000
H      -4.043750000000000     -0.503470000000000     -2.423970000000000
Na     -5.008820000000000      1.077080000000000      5.224780000000000
C      -3.908470000000000      4.051050000000000      4.377080000000000
C      -5.991600000000000      4.208180000000000      5.348790000000000
O      -5.229030000000000      3.552200000000000      4.358400000000000
C      -3.094420000000000      3.347690000000000      3.300520000000000
C      -7.410140000000000      3.655320000000000      5.335290000000000
H      -3.894000000000000      5.142570000000000      4.154490000000000
H      -3.423180000000000      3.845630000000000      5.357950000000000
H      -5.566310000000000      4.025330000000000      6.361950000000000
H      -6.050570000000000      5.300960000000000      5.141600000000000
H      -7.398450000000000      2.565490000000000      5.549730000000000
H      -8.019720000000000      4.166410000000000      6.110560000000000
H      -7.877920000000000      3.824970000000000      4.342210000000000
H      -3.542130000000000      3.536470000000000      2.302220000000000
H      -2.052650000000000      3.732910000000000      3.305940000000000
H      -3.074220000000000      2.252870000000000      3.488510000000000
Na     -6.228550000000000      4.465680000000000      2.098100000000000
Mg      0.955140000000000      5.627090000000000      4.492500000000000
H       4.002090000000000      5.747130000000000      4.085790000000000
C       3.301190000000000      6.545460000000000      2.165100000000000
C       3.232870000000000      5.546580000000000      3.312600000000000
C       2.977760000000000      7.987860000000000      2.588370000000000
H       4.312150000000000      6.496200000000000      1.709700000000000
H       2.554430000000000      6.242970000000000      1.399210000000000
H       3.059040000000000      8.631010000000000      1.685060000000000
H       1.934220000000000      8.051370000000000      2.963420000000000
C       3.919200000000000      8.538309999999999      3.658690000000000
H       3.344890000000000      4.507430000000000      2.941380000000000
H       3.796580000000000      7.983890000000000      4.612230000000000
H       4.974250000000000      8.470120000000000      3.320650000000000
H       3.672810000000000      9.603820000000001      3.852600000000000
C      -1.019910000000000      7.812140000000000      3.304870000000000
C      -2.154430000000000      8.409179999999999      3.829210000000000
C      -2.337300000000000      7.883960000000000      5.099450000000000
C      -1.296300000000000      7.005600000000000      5.303300000000000
N      -0.518970000000000      6.959460000000000      4.212790000000000
C      -1.012890000000000      6.170340000000000      6.537650000000000
N       0.329920000000000      5.560980000000000      6.429140000000000
C       0.862080000000000      4.702410000000000      7.502190000000000
H      -2.781530000000000      9.142280000000000      3.340510000000000
H      -0.595400000000000      7.989010000000000      2.324960000000000
H      -3.128040000000000      8.124100000000000      5.796750000000000
H      -1.802270000000000      5.394910000000000      6.611320000000000
H      -1.042740000000000      6.832990000000000      7.423090000000000
C      -0.077610000000000      3.514980000000000      7.778270000000000
C       2.234240000000000      4.160800000000000      7.060780000000000
C       1.056380000000000      5.536880000000000      8.783280000000000
H      -0.220470000000000      2.911720000000000      6.856340000000000
H       0.348490000000000      2.859550000000000      8.568550000000000
H      -1.068600000000000      3.864000000000000      8.134160000000000
H       2.937280000000000      4.994540000000000      6.846030000000000
H       2.681020000000000      3.528280000000000      7.860210000000000
H       2.137170000000000      3.542220000000000      6.142990000000000
H       1.740300000000000      6.391140000000000      8.583830000000001
H       0.092010000000000      5.940910000000000      9.152419999999999
H       1.494720000000000      4.918470000000000      9.595260000000000
