170

Mg      0.016200000000000      0.896330000000000      0.305710000000000
C      -1.892310000000000     -1.746720000000000     -0.183470000000000
C      -1.417040000000000     -0.678570000000000     -2.271900000000000
O      -1.422780000000000     -0.595420000000000     -0.863020000000000
C      -1.276070000000000     -3.072900000000000     -0.634730000000000
C      -2.820230000000000     -0.724440000000000     -2.856780000000000
H      -1.596440000000000     -1.614860000000000      0.875860000000000
H      -3.000170000000000     -1.788060000000000     -0.195650000000000
H      -0.933800000000000      0.245430000000000     -2.643040000000000
H      -0.772280000000000     -1.499360000000000     -2.643140000000000
H      -2.753550000000000     -0.662490000000000     -3.962700000000000
H      -3.417970000000000      0.131270000000000     -2.480160000000000
H      -3.319670000000000     -1.672960000000000     -2.578730000000000
H      -0.175090000000000     -3.013220000000000     -0.629320000000000
H      -1.630230000000000     -3.347830000000000     -1.648520000000000
H      -1.574320000000000     -3.875820000000000      0.068640000000000
H      -1.907920000000000      2.744360000000000      0.269020000000000
C      -0.254530000000000      3.736220000000000     -0.776330000000000
C      -0.808220000000000      2.854000000000000      0.355600000000000
C      -0.441400000000000      3.176930000000000     -2.200820000000000
H      -0.739360000000000      4.732420000000000     -0.711580000000000
H       0.837330000000000      3.865000000000000     -0.615810000000000
H      -0.004200000000000      3.904700000000000     -2.921290000000000
H       0.121300000000000      2.227810000000000     -2.308190000000000
C      -1.903130000000000      2.956210000000000     -2.589660000000000
H      -0.560000000000000      3.296120000000000      1.339580000000000
H      -2.370740000000000      2.200050000000000     -1.930300000000000
H      -2.473420000000000      3.905570000000000     -2.521400000000000
H      -1.959390000000000      2.582660000000000     -3.635840000000000
C       2.060220000000000     -1.005980000000000     -2.474200000000000
C       2.363160000000000      0.271820000000000     -2.068800000000000
C       2.330170000000000      0.291270000000000     -0.684710000000000
C       1.990470000000000     -0.935090000000000     -0.264020000000000
N       1.833470000000000     -1.814240000000000     -1.347310000000000
C       1.755540000000000     -1.332040000000000      1.172320000000000
N       0.664400000000000     -0.519330000000000      1.720000000000000
C       0.345990000000000     -0.621460000000000      3.166040000000000
H       2.565410000000000      1.109170000000000     -2.725380000000000
H       1.987140000000000     -1.348300000000000     -3.495370000000000
H       2.494150000000000      1.156040000000000     -0.057800000000000
H       2.693430000000000     -1.189340000000000      1.740070000000000
H       1.465470000000000     -2.404500000000000      1.191710000000000
C       1.502870000000000     -0.066220000000000      4.019070000000000
C      -0.919040000000000      0.203590000000000      3.452340000000000
C       0.072580000000000     -2.090700000000000      3.568590000000000
H       1.696750000000000      0.996890000000000      3.766190000000000
H       1.254890000000000     -0.134610000000000      5.100690000000000
H       2.435980000000000     -0.644860000000000      3.865780000000000
H      -1.786100000000000     -0.190700000000000      2.881560000000000
H      -1.173990000000000      0.167860000000000      4.535830000000000
H      -0.763010000000000      1.264830000000000      3.166250000000000
H      -0.760680000000000     -2.515390000000000      2.969180000000000
H       0.970030000000000     -2.726910000000000      3.421810000000000
H      -0.207200000000000     -2.160410000000000      4.642820000000000
Na     -0.255380000000000     -2.032260000000000     11.088120000000000
C       1.205140000000000     -0.840130000000000      8.507230000000000
C       0.704420000000000     -3.064490000000000      7.958910000000000
O       1.070630000000000     -2.163840000000000      8.986800000000001
C      -0.124210000000000     -0.096620000000000      8.586990000000000
C       1.936710000000000     -3.656480000000000      7.279810000000000
H       1.937730000000000     -0.315880000000000      9.156660000000000
H       1.622360000000000     -0.797060000000000      7.476700000000000
H       0.128310000000000     -3.892070000000000      8.425060000000000
H       0.028800000000000     -2.603420000000000      7.204890000000000
H       2.568310000000000     -4.191150000000000      8.019399999999999
H       1.616140000000000     -4.380110000000000      6.501630000000000
H       2.539280000000000     -2.859830000000000      6.796980000000000
H      -0.492660000000000     -0.083180000000000      9.634169999999999
H       0.014850000000000      0.949200000000000      8.243010000000000
H      -0.884080000000000     -0.583470000000000      7.942400000000000
C      -3.103250000000000     -2.691640000000000      9.410860000000000
C      -3.445720000000000     -2.746000000000000     11.769940000000000
O      -2.517050000000000     -2.695470000000000     10.700670000000001
C      -3.973160000000000     -1.465390000000000      9.131670000000000
C      -4.275370000000000     -4.029500000000000     11.799040000000000
H      -2.263840000000000     -2.659300000000000      8.684900000000001
H      -3.640960000000000     -3.638450000000000      9.199460000000000
H      -2.848130000000000     -2.729150000000000     12.706770000000001
H      -4.082860000000000     -1.838490000000000     11.809830000000000
H      -3.606330000000000     -4.915410000000000     11.780939999999999
H      -4.880910000000000     -4.052930000000000     12.729170000000000
H      -4.975180000000000     -4.070680000000000     10.940080000000000
H      -3.396730000000000     -0.535890000000000      9.322789999999999
H      -4.291640000000000     -1.479220000000000      8.068090000000000
H      -4.888910000000000     -1.474410000000000      9.756489999999999
Na      2.955810000000000     -3.153210000000000     10.091559999999999
C       1.851230000000000     -2.575120000000000     13.184360000000000
C       1.232090000000000     -4.691560000000000     12.400690000000001
O       1.539740000000000     -3.357630000000000     12.050210000000000
C       2.517290000000000     -1.286440000000000     12.718930000000000
C      -0.196590000000000     -4.828010000000000     12.922549999999999
H       0.921580000000000     -2.303730000000000     13.729139999999999
H       2.565120000000000     -3.089080000000000     13.866610000000000
H       1.313920000000000     -5.300960000000000     11.475160000000001
H       1.968490000000000     -5.120630000000000     13.115720000000000
H      -0.916130000000000     -4.448770000000000     12.168160000000000
H      -0.416930000000000     -5.897880000000000     13.120340000000001
H      -0.326160000000000     -4.264340000000000     13.867770000000000
H       1.844300000000000     -0.732800000000000     12.029640000000001
H       2.745250000000000     -0.641320000000000     13.593290000000000
H       3.464720000000000     -1.515830000000000     12.187900000000001
C       6.030590000000000     -3.615950000000000     11.244080000000000
C       6.007680000000000     -1.766340000000000      9.851960000000000
O       5.221960000000000     -2.735810000000000     10.501590000000000
C       5.127440000000000     -4.654760000000000     11.895379999999999
C       5.074990000000000     -0.831960000000000      9.093040000000000
H       6.749470000000000     -4.150580000000000     10.582900000000000
H       6.567170000000000     -3.069840000000000     12.052060000000001
H       6.578180000000000     -1.158700000000000     10.590050000000000
H       6.694780000000000     -2.242230000000000      9.116470000000000
H       4.374860000000000     -0.340340000000000      9.801970000000001
H       5.661220000000000     -0.050900000000000      8.565939999999999
H       4.484600000000000     -1.406250000000000      8.346439999999999
H       4.572820000000000     -5.221000000000000     11.116199999999999
H       5.731160000000000     -5.364770000000000     12.497570000000000
H       4.394840000000000     -4.153000000000000     12.560950000000000
Mg     -0.952020000000000     -2.137570000000000     19.963960000000000
C      -2.280490000000000     -4.193420000000000     17.863720000000001
C      -2.432360000000000     -1.944640000000000     17.091449999999998
O      -2.532510000000000     -2.837070000000000     18.183270000000000
C      -0.878330000000000     -4.457710000000000     17.313320000000001
C      -3.590690000000000     -2.097850000000000     16.115100000000002
H      -2.352930000000000     -4.751180000000000     18.817950000000000
H      -3.071500000000000     -4.618880000000000     17.214469999999999
H      -2.485350000000000     -0.918430000000000     17.515450000000001
H      -1.448420000000000     -1.994260000000000     16.582760000000000
H      -4.553150000000000     -2.015640000000000     16.662810000000000
H      -3.535950000000000     -1.294840000000000     15.351220000000000
H      -3.537190000000000     -3.076520000000000     15.597500000000000
H      -0.114290000000000     -3.980650000000000     17.957300000000000
H      -0.695440000000000     -5.552190000000000     17.286320000000000
H      -0.779190000000000     -4.071920000000000     16.280770000000000
H       1.584890000000000     -1.762180000000000     19.351150000000001
C       0.692970000000000      0.220900000000000     19.448670000000000
C       0.674700000000000     -1.229440000000000     19.007400000000001
C       0.675210000000000      0.312720000000000     20.978149999999999
H       1.606310000000000      0.694310000000000     19.033829999999998
H      -0.205870000000000      0.739550000000000     19.047149999999998
H      -0.287380000000000     -0.087370000000000     21.363289999999999
H       1.502410000000000     -0.289740000000000     21.410290000000000
C       0.840160000000000      1.755800000000000     21.436959999999999
H       0.583050000000000     -1.310640000000000     17.905059999999999
H       1.823810000000000      2.143080000000000     21.095109999999998
H       0.030510000000000      2.394020000000000     21.024229999999999
H       0.806540000000000      1.801480000000000     22.545700000000000
C      -2.701040000000000     -0.225400000000000     22.892160000000001
C      -3.157600000000000     -0.198410000000000     21.594010000000001
C      -3.231650000000000     -1.508350000000000     21.155159999999999
C      -2.819430000000000     -2.305460000000000     22.146090000000001
N      -2.488820000000000     -1.554190000000000     23.291850000000000
C      -2.719390000000000     -3.807120000000000     22.092970000000001
N      -1.645090000000000     -4.247570000000000     21.184780000000000
C      -0.361970000000000     -4.669980000000000     21.800670000000000
H      -3.399920000000000      0.692070000000000     21.028140000000000
H      -2.523480000000000      0.638190000000000     23.516860000000001
H      -3.560210000000000     -1.824430000000000     20.177440000000001
H      -3.687400000000000     -4.213830000000000     21.730540000000001
H      -2.571270000000000     -4.186630000000000     23.117390000000000
C      -0.557990000000000     -5.932550000000000     22.665569999999999
C       0.613200000000000     -5.028420000000000     20.662690000000001
C       0.275490000000000     -3.537610000000000     22.633420000000001
H      -1.035070000000000     -6.735990000000000     22.064609999999998
H       0.421470000000000     -6.303830000000000     23.036619999999999
H      -1.182620000000000     -5.741730000000000     23.558669999999999
H       0.823510000000000     -4.141000000000000     20.032280000000000
H       1.585470000000000     -5.386970000000000     21.068030000000000
H       0.189830000000000     -5.827980000000000     20.017160000000001
H       0.482070000000000     -2.650380000000000     21.997869999999999
H      -0.381730000000000     -3.228720000000000     23.469010000000001
H       1.239790000000000     -3.875010000000000     23.072479999999999
