140

Mg     -0.413180000000000      0.524910000000000     -0.412550000000000
H      -1.809700000000000     -0.301580000000000     -2.935040000000000
C       0.126200000000000     -1.286000000000000     -3.233680000000000
C      -0.726080000000000     -0.114180000000000     -2.790690000000000
C      -0.050240000000000     -1.495510000000000     -4.732060000000000
H       1.191810000000000     -1.071890000000000     -2.998350000000000
H      -0.186260000000000     -2.193900000000000     -2.672050000000000
H      -1.121810000000000     -1.692980000000000     -4.948430000000000
H       0.261190000000000     -0.572920000000000     -5.269180000000000
C       0.783610000000000     -2.666520000000000     -5.227410000000000
H      -0.403930000000000      0.837680000000000     -3.262770000000000
H       1.861490000000000     -2.477800000000000     -5.036370000000000
H       0.475210000000000     -3.601510000000000     -4.713230000000000
H       0.626250000000000     -2.785790000000000     -6.319200000000000
C      -2.865350000000000      2.059220000000000      0.890690000000000
C      -3.144960000000000      2.381230000000000      2.209330000000000
C      -2.101830000000000      1.882540000000000      2.974190000000000
C      -1.238840000000000      1.269400000000000      2.096990000000000
N      -1.706520000000000      1.385860000000000      0.844980000000000
C       0.067270000000000      0.569910000000000      2.420950000000000
N       0.590860000000000     -0.119120000000000      1.224320000000000
C       1.833110000000000     -0.910410000000000      1.289550000000000
H      -4.006180000000000      2.922590000000000      2.573960000000000
H      -3.470530000000000      2.309020000000000      0.026970000000000
H      -1.985210000000000      1.950960000000000      4.047140000000000
H      -0.123840000000000     -0.170370000000000      3.218890000000000
H       0.781840000000000      1.343290000000000      2.769850000000000
C       1.620670000000000     -2.127690000000000      2.209310000000000
C       2.178870000000000     -1.420530000000000     -0.121460000000000
C       3.001220000000000     -0.050680000000000      1.804520000000000
H       0.787720000000000     -2.757080000000000      1.825490000000000
H       2.539500000000000     -2.748890000000000      2.260630000000000
H       1.372710000000000     -1.813910000000000      3.242940000000000
H       2.356710000000000     -0.571730000000000     -0.815610000000000
H       3.100460000000000     -2.044740000000000     -0.096160000000000
H       1.354150000000000     -2.043460000000000     -0.528810000000000
H       3.148900000000000      0.832740000000000      1.146560000000000
H       2.810390000000000      0.302250000000000      2.838520000000000
H       3.942000000000000     -0.641800000000000      1.820990000000000
Na    -10.755300000000000     -7.730440000000000     -5.389570000000000
C     -11.509580000000000     -4.768860000000000     -6.313850000000000
C     -10.799730000000000     -4.571590000000000     -4.086690000000000
O     -11.463850000000001     -5.380210000000000     -5.039160000000000
C     -10.279050000000000     -5.136610000000000     -7.136870000000000
C     -11.778589999999999     -3.641840000000000     -3.373980000000000
H     -12.408759999999999     -5.150830000000000     -6.842190000000000
H     -11.631970000000001     -3.663880000000000     -6.256500000000000
H     -10.342750000000001     -5.246000000000000     -3.331410000000000
H      -9.961499999999999     -3.988480000000000     -4.528610000000000
H     -12.566979999999999     -4.228960000000000     -2.858700000000000
H     -11.231790000000000     -3.042880000000000     -2.615830000000000
H     -12.257420000000000     -2.948860000000000     -4.096010000000000
H     -10.209420000000000     -6.238640000000000     -7.251000000000000
H     -10.356170000000001     -4.676760000000000     -8.143920000000000
H      -9.355910000000000     -4.764830000000000     -6.647560000000000
C      -7.541260000000000     -6.941740000000000     -4.788990000000000
C      -7.849250000000000     -9.301729999999999     -4.929610000000000
O      -8.454330000000001     -8.023370000000000     -4.844620000000000
C      -6.673640000000000     -6.802460000000000     -6.040190000000000
C      -7.011110000000000     -9.663119999999999     -3.703660000000000
H      -8.153689999999999     -6.018290000000000     -4.720670000000000
H      -6.932700000000000     -6.962890000000000     -3.861810000000000
H      -8.678950000000000    -10.039230000000000     -4.979950000000000
H      -7.281850000000000     -9.431190000000001     -5.874390000000000
H      -7.616590000000000     -9.543279999999999     -2.780710000000000
H      -6.680850000000000    -10.719870000000000     -3.784410000000000
H      -6.103360000000000     -9.029680000000001     -3.641840000000000
H      -7.313430000000000     -6.755490000000000     -6.946340000000000
H      -6.081650000000000     -5.867000000000000     -5.970420000000000
H      -5.959610000000000     -7.646010000000000     -6.127290000000000
Na    -13.541000000000000     -6.024960000000000     -4.040940000000000
C     -13.334640000000000     -9.232200000000001     -4.900900000000000
C     -12.449740000000000     -8.830330000000000     -2.771550000000000
O     -12.698650000000001     -8.295850000000000     -4.055810000000000
C     -13.895810000000001     -8.495160000000000     -6.110570000000000
C     -11.214190000000000     -9.728170000000000     -2.756510000000000
H     -12.597880000000000     -9.979329999999999     -5.266040000000000
H     -14.187519999999999     -9.741199999999999     -4.398150000000000
H     -12.252680000000000     -7.973010000000000     -2.092710000000000
H     -13.337500000000000     -9.354260000000000     -2.353410000000000
H     -10.329720000000000     -9.166250000000000     -3.120990000000000
H     -11.017600000000000    -10.067209999999999     -1.717850000000000
H     -11.368390000000000    -10.623740000000000     -3.392210000000000
H     -13.082000000000001     -7.963460000000000     -6.648720000000000
H     -14.373360000000000     -9.217440000000000     -6.805540000000000
H     -14.656730000000000     -7.754130000000000     -5.788110000000000
C     -16.791180000000001     -6.350480000000000     -3.476340000000000
C     -16.458649999999999     -4.858140000000000     -5.215370000000000
O     -15.844210000000000     -5.775490000000000     -4.343610000000000
C     -16.060260000000000     -7.307430000000000     -2.544010000000000
C     -15.388620000000000     -4.297520000000000     -6.142660000000000
H     -17.285129999999999     -5.571610000000000     -2.852590000000000
H     -17.545100000000001     -6.935340000000000     -4.049490000000000
H     -17.228580000000001     -5.361490000000000     -5.842490000000000
H     -16.903749999999999     -4.010320000000000     -4.647440000000000
H     -14.924370000000000     -5.122070000000000     -6.724950000000000
H     -15.836819999999999     -3.566930000000000     -6.847550000000000
H     -14.598170000000000     -3.788900000000000     -5.549120000000000
H     -15.295940000000000     -6.756840000000000     -1.954040000000000
H     -16.777750000000001     -7.788130000000000     -1.847360000000000
H     -15.552720000000001     -8.096560000000000     -3.136490000000000
Mg     -5.913990000000000     -1.879280000000000      0.385520000000000
H      -3.306400000000000     -3.282730000000000     -0.480120000000000
C      -4.384700000000000     -3.212240000000000     -2.380880000000000
C      -4.333640000000000     -3.414540000000000     -0.877970000000000
C      -3.520790000000000     -4.264720000000000     -3.069370000000000
H      -5.439210000000000     -3.298900000000000     -2.723140000000000
H      -4.015930000000000     -2.190700000000000     -2.620370000000000
H      -2.472780000000000     -4.173070000000000     -2.709160000000000
H      -3.903390000000000     -5.277480000000000     -2.814410000000000
C      -3.542810000000000     -4.092610000000000     -4.580490000000000
H      -4.753460000000000     -4.399830000000000     -0.585370000000000
H      -4.579770000000000     -4.194980000000000     -4.962780000000000
H      -3.148190000000000     -3.093300000000000     -4.858450000000000
H      -2.906730000000000     -4.874400000000000     -5.044930000000000
C      -5.072670000000000     -1.365490000000000      3.399000000000000
C      -5.525080000000000     -0.454930000000000      4.339620000000000
C      -6.503230000000000      0.310550000000000      3.722760000000000
C      -6.595720000000000     -0.154770000000000      2.429770000000000
N      -5.738200000000000     -1.169130000000000      2.250130000000000
C      -7.512370000000000      0.342940000000000      1.326250000000000
N      -7.167810000000000     -0.316860000000000      0.048820000000000
C      -7.888590000000000      0.000600000000000     -1.196620000000000
H      -5.185090000000000     -0.361090000000000      5.361860000000000
H      -4.312650000000000     -2.121620000000000      3.549970000000000
H      -7.073940000000000      1.116780000000000      4.162640000000000
H      -7.374250000000000      1.436160000000000      1.226270000000000
H      -8.556290000000001      0.111660000000000      1.621330000000000
C      -7.633280000000000      1.469400000000000     -1.584540000000000
C      -7.351160000000000     -0.901580000000000     -2.322460000000000
C      -9.397399999999999     -0.255740000000000     -1.034560000000000
H      -6.542620000000000      1.648650000000000     -1.709620000000000
H      -8.142580000000001      1.718960000000000     -2.539650000000000
H      -8.014699999999999      2.163450000000000     -0.808640000000000
H      -7.523800000000000     -1.972990000000000     -2.084800000000000
H      -7.862230000000000     -0.674080000000000     -3.284650000000000
H      -6.260610000000000     -0.744440000000000     -2.466300000000000
H      -9.580349999999999     -1.314950000000000     -0.752310000000000
H      -9.831910000000001      0.401670000000000     -0.253980000000000
H      -9.932119999999999     -0.046060000000000     -1.985980000000000
