110

Mg     -0.293070000000000      0.406770000000000     -0.619670000000000
C       0.967590000000000      0.052350000000000      2.904440000000000
C      -1.336950000000000      0.103280000000000      2.964880000000000
O      -0.187420000000000      0.661840000000000      2.361270000000000
C       2.187500000000000      0.908930000000000      2.602680000000000
C      -2.588630000000000      0.685580000000000      2.321780000000000
H       0.908450000000000     -0.039560000000000      4.011890000000000
H       1.117920000000000     -0.952400000000000      2.458020000000000
H      -1.360680000000000     -0.999780000000000      2.840580000000000
H      -1.366360000000000      0.348210000000000      4.047710000000000
H      -2.623550000000000      0.441340000000000      1.240800000000000
H      -3.491810000000000      0.260970000000000      2.809020000000000
H      -2.599110000000000      1.788560000000000      2.444030000000000
H       2.061690000000000      1.921320000000000      3.033900000000000
H       3.096760000000000      0.433210000000000      3.024910000000000
H       2.331910000000000      1.016870000000000      1.518690000000000
H      -2.280310000000000      2.785950000000000      0.115880000000000
C      -2.432210000000000      2.026500000000000     -1.948530000000000
C      -1.635970000000000      2.489970000000000     -0.734550000000000
C      -3.342520000000000      0.837170000000000     -1.612360000000000
H      -3.041790000000000      2.883400000000000     -2.299320000000000
H      -1.726360000000000      1.725760000000000     -2.754870000000000
H      -2.732150000000000     -0.045720000000000     -1.319120000000000
H      -4.010790000000000      1.103240000000000     -0.765920000000000
C      -4.210830000000000      0.464710000000000     -2.812010000000000
H      -0.920570000000000      3.294690000000000     -1.000200000000000
H      -4.842050000000000      1.331100000000000     -3.104640000000000
H      -3.579120000000000      0.166850000000000     -3.675670000000000
H      -4.878120000000000     -0.382880000000000     -2.548000000000000
C      -1.506660000000000     -2.244020000000000      0.607980000000000
C      -0.906910000000000     -3.444510000000000      0.944790000000000
C       0.434550000000000     -3.328880000000000      0.610680000000000
C       0.599480000000000     -2.062220000000000      0.100330000000000
N      -0.575030000000000     -1.417930000000000      0.114910000000000
C       1.866410000000000     -1.427310000000000     -0.445070000000000
N       1.700390000000000      0.036460000000000     -0.600600000000000
C       2.637420000000000      0.782660000000000     -1.464200000000000
H      -1.392780000000000     -4.304630000000000      1.381760000000000
H      -2.553710000000000     -1.991220000000000      0.733810000000000
H       1.204950000000000     -4.076980000000000      0.734650000000000
H       2.702940000000000     -1.610760000000000      0.258790000000000
H       2.074780000000000     -1.917860000000000     -1.415720000000000
C       2.384880000000000      0.473860000000000     -2.950630000000000
C       2.417030000000000      2.292620000000000     -1.238590000000000
C       4.091970000000000      0.440600000000000     -1.084550000000000
H       1.352980000000000      0.768390000000000     -3.239780000000000
H       3.100850000000000      1.040790000000000     -3.585450000000000
H       2.521620000000000     -0.602180000000000     -3.173240000000000
H       2.598320000000000      2.574750000000000     -0.180330000000000
H       3.109120000000000      2.891220000000000     -1.871550000000000
H       1.377450000000000      2.581130000000000     -1.499310000000000
H       4.266540000000000      0.652020000000000     -0.006940000000000
H       4.308320000000000     -0.631780000000000     -1.270050000000000
H       4.809790000000000      1.042000000000000     -1.681090000000000
Na      4.165250000000000      2.204330000000000     12.964549999999999
C       3.152620000000000      2.987140000000000      9.940910000000001
C       4.322660000000000      1.002800000000000      9.912419999999999
O       4.344980000000000      2.346990000000000     10.342689999999999
C       3.186680000000000      4.437910000000000     10.399390000000000
C       5.603500000000000      0.312940000000000     10.361359999999999
H       3.055390000000000      2.984010000000000      8.831170000000000
H       2.267340000000000      2.503600000000000     10.412530000000000
H       3.465650000000000      0.455560000000000     10.367270000000000
H       4.276980000000000      0.945360000000000      8.801040000000000
H       5.683690000000000      0.337430000000000     11.468990000000000
H       5.596950000000000     -0.745950000000000     10.025990000000000
H       6.487260000000000      0.822600000000000      9.922020000000000
H       4.054060000000000      4.962350000000000      9.944860000000000
H       2.252290000000000      4.951560000000000     10.088139999999999
H       3.272690000000000      4.487040000000000     11.505870000000000
Na      6.203730000000000      3.450520000000000      8.837070000000001
Mg     -1.216060000000000      5.353510000000000      8.729340000000001
H      -3.535150000000000      7.375090000000000      8.688900000000000
C      -2.081850000000000      8.392810000000001      7.396550000000000
C      -2.450580000000000      7.601830000000000      8.644590000000001
C      -2.311230000000000      7.616510000000000      6.089360000000000
H      -2.663350000000000      9.338179999999999      7.389220000000000
H      -1.000630000000000      8.644480000000000      7.454120000000000
H      -2.017000000000000      8.279700000000000      5.246870000000000
H      -1.662440000000000      6.715420000000000      6.061020000000000
C      -3.761850000000000      7.184750000000000      5.879710000000000
H      -2.149820000000000      8.146390000000000      9.562799999999999
H      -4.065230000000000      6.442300000000000      6.646780000000000
H      -4.438870000000000      8.063310000000000      5.922740000000000
H      -3.861960000000000      6.702970000000000      4.884000000000000
C       0.635860000000000      4.819220000000000      6.205990000000000
C       1.179880000000000      3.653270000000000      5.693880000000000
C       0.751100000000000      2.615120000000000      6.506970000000000
C      -0.051310000000000      3.189700000000000      7.468050000000000
N      -0.101800000000000      4.516300000000000      7.285790000000000
C      -0.786300000000000      2.498680000000000      8.601250000000000
N      -1.721320000000000      3.448800000000000      9.241360000000000
C      -2.571660000000000      3.031870000000000     10.370590000000000
H       1.821080000000000      3.569710000000000      4.828100000000000
H       0.776060000000000      5.819000000000000      5.815500000000000
H       0.986650000000000      1.564940000000000      6.402330000000000
H      -0.028640000000000      2.131780000000000      9.323240000000000
H      -1.358340000000000      1.650070000000000      8.181240000000001
C      -1.721300000000000      2.488340000000000     11.532800000000000
C      -3.366360000000000      4.255300000000000     10.863519999999999
C      -3.571880000000000      1.959910000000000      9.895750000000000
H      -0.998620000000000      3.258650000000000     11.877210000000000
H      -2.371450000000000      2.204340000000000     12.388590000000001
H      -1.159170000000000      1.582260000000000     11.226979999999999
H      -3.988060000000000      4.678360000000000     10.044990000000000
H      -4.042730000000000      3.971400000000000     11.700650000000000
H      -2.680810000000000      5.050670000000000     11.226530000000000
H      -4.189740000000000      2.356220000000000      9.060000000000000
H      -3.049200000000000      1.048440000000000      9.541499999999999
H      -4.250520000000000      1.658750000000000     10.721959999999999
