140

Mg      0.688890000000000     -0.611490000000000      0.067310000000000
H       0.625690000000000     -2.182230000000000     -2.550150000000000
C      -0.241870000000000     -3.648010000000000     -1.160500000000000
C       0.782200000000000     -2.583150000000000     -1.528170000000000
C      -1.682080000000000     -3.115430000000000     -1.081350000000000
H      -0.176140000000000     -4.473540000000000     -1.899200000000000
H       0.022830000000000     -4.046880000000000     -0.158060000000000
H      -2.343510000000000     -3.970300000000000     -0.820460000000000
H      -1.765790000000000     -2.357160000000000     -0.274170000000000
C      -2.180200000000000     -2.497090000000000     -2.386640000000000
H       1.816780000000000     -2.970580000000000     -1.431510000000000
H      -1.606930000000000     -1.577810000000000     -2.628250000000000
H      -2.089330000000000     -3.223570000000000     -3.220680000000000
H      -3.247420000000000     -2.210360000000000     -2.274350000000000
C      -1.571320000000000     -0.863660000000000      2.282690000000000
C      -2.171910000000000      0.083600000000000      3.099070000000000
C      -1.603610000000000      1.304680000000000      2.772930000000000
C      -0.700570000000000      1.059890000000000      1.766200000000000
N      -0.682800000000000     -0.259680000000000      1.489240000000000
C       0.187000000000000      2.050660000000000      1.044840000000000
N       0.810890000000000      1.409290000000000     -0.131110000000000
C       1.707660000000000      2.168100000000000     -1.021090000000000
H      -2.929310000000000     -0.094360000000000      3.847030000000000
H      -1.776830000000000     -1.929880000000000      2.283290000000000
H      -1.830970000000000      2.268770000000000      3.213500000000000
H       0.956020000000000      2.399360000000000      1.765610000000000
H      -0.438100000000000      2.900460000000000      0.710000000000000
C       2.882230000000000      2.779020000000000     -0.235050000000000
C       2.268210000000000      1.212430000000000     -2.090670000000000
C       0.908500000000000      3.278790000000000     -1.730570000000000
H       3.460490000000000      1.981590000000000      0.278800000000000
H       3.565140000000000      3.325630000000000     -0.920830000000000
H       2.521390000000000      3.504200000000000      0.522770000000000
H       1.445350000000000      0.745580000000000     -2.674160000000000
H       2.926420000000000      1.762300000000000     -2.800110000000000
H       2.866140000000000      0.401790000000000     -1.621720000000000
H       0.065850000000000      2.835400000000000     -2.305630000000000
H       0.490700000000000      4.003490000000000     -1.003020000000000
H       1.555450000000000      3.844800000000000     -2.433620000000000
Na     -1.158050000000000    -12.449339999999999      4.649400000000000
C      -0.516890000000000    -13.062939999999999      1.573200000000000
C       1.570730000000000    -12.563330000000001      2.519330000000000
O       0.181210000000000    -12.295730000000001      2.535360000000000
C      -0.967160000000000    -14.394640000000001      2.165100000000000
C       2.299920000000000    -11.631800000000000      1.554550000000000
H      -1.420360000000000    -12.491210000000001      1.272630000000000
H       0.070150000000000    -13.223420000000001      0.640750000000000
H       1.961670000000000    -12.383860000000000      3.543630000000000
H       1.800440000000000    -13.626070000000000      2.282000000000000
H       2.140440000000000    -10.571990000000000      1.841620000000000
H       3.388280000000000    -11.845170000000000      1.588350000000000
H       1.940370000000000    -11.784120000000000      0.516010000000000
H      -1.610640000000000    -14.221340000000000      3.052740000000000
H      -1.548440000000000    -14.960080000000000      1.407400000000000
H      -0.090890000000000    -15.003690000000001      2.467050000000000
C       0.823050000000000    -14.977220000000001      5.737540000000000
C      -0.624520000000000    -14.186059999999999      7.457010000000000
O      -0.083370000000000    -13.975379999999999      6.164250000000000
C       0.189790000000000    -16.362189999999998      5.594370000000000
C       0.421810000000000    -14.148320000000000      8.570729999999999
H       1.168180000000000    -14.677840000000000      4.725790000000000
H       1.736520000000000    -15.001730000000000      6.366320000000000
H      -1.324870000000000    -13.344420000000000      7.646130000000000
H      -1.247430000000000    -15.103059999999999      7.502830000000000
H       1.004160000000000    -13.205640000000001      8.509770000000000
H      -0.088820000000000    -14.194380000000001      9.555300000000001
H       1.106300000000000    -15.018060000000000      8.506000000000000
H      -0.701720000000000    -16.308900000000001      4.934650000000000
H       0.929850000000000    -17.056699999999999      5.144400000000000
H      -0.098870000000000    -16.774909999999998      6.582020000000000
Na     -0.013890000000000     -9.896340000000000      2.429640000000000
C      -2.337300000000000     -9.680360000000000      4.827200000000000
C      -0.164180000000000     -9.423080000000001      5.656590000000000
O      -0.974390000000000    -10.012560000000001      4.659720000000000
C      -3.085190000000000    -10.027760000000001      3.546300000000000
C      -0.219690000000000    -10.202510000000000      6.968670000000000
H      -2.777870000000000    -10.277450000000000      5.654230000000000
H      -2.485310000000000     -8.592590000000000      5.011950000000000
H       0.883800000000000     -9.453989999999999      5.288460000000000
H      -0.401720000000000     -8.347410000000000      5.813130000000000
H       0.074630000000000    -11.258319999999999      6.796820000000000
H       0.484580000000000     -9.749480000000000      7.697530000000000
H      -1.239740000000000    -10.171519999999999      7.403150000000000
H      -2.971090000000000    -11.108499999999999      3.315180000000000
H      -4.165030000000000     -9.798209999999999      3.664800000000000
H      -2.685200000000000     -9.434860000000000      2.697500000000000
C      -0.823000000000000     -6.864960000000000      1.346540000000000
C      -1.304790000000000     -8.409030000000000     -0.307640000000000
O      -0.905040000000000     -8.233459999999999      1.029900000000000
C      -0.354280000000000     -6.737440000000000      2.789510000000000
C      -1.395780000000000     -9.903790000000001     -0.582920000000000
H      -0.079000000000000     -6.351580000000000      0.697710000000000
H      -1.822240000000000     -6.381350000000000      1.263400000000000
H      -2.310580000000000     -7.964620000000000     -0.481750000000000
H      -0.554560000000000     -7.973490000000000     -1.005740000000000
H      -2.138310000000000    -10.368760000000000      0.100390000000000
H      -1.711270000000000    -10.080940000000000     -1.632050000000000
H      -0.406530000000000    -10.382949999999999     -0.417030000000000
H       0.644640000000000     -7.209830000000000      2.909570000000000
H      -0.285620000000000     -5.667810000000000      3.076810000000000
H      -1.072780000000000     -7.245350000000000      3.465760000000000
Mg      4.408270000000000     -9.827970000000001      7.036190000000000
H       3.845820000000000     -6.686300000000000      6.995460000000000
C       5.389510000000000     -6.762780000000000      8.545719999999999
C       4.202350000000000     -7.356700000000000      7.803940000000000
C       6.586790000000000     -6.489940000000000      7.625110000000000
H       5.062420000000000     -5.806940000000000      9.005900000000000
H       5.698800000000000     -7.454280000000000      9.358120000000000
H       6.289880000000000     -5.792350000000000      6.811960000000000
H       7.377430000000000     -6.001220000000000      8.233029999999999
C       7.179170000000000     -7.761300000000000      7.013960000000000
H       3.372700000000000     -7.572880000000000      8.510690000000000
H       6.451120000000000     -8.251690000000000      6.336750000000000
H       8.081820000000000     -7.496570000000000      6.422350000000000
H       7.478990000000000     -8.474420000000000      7.811500000000000
C       5.218470000000000    -10.080920000000001      3.975980000000000
C       5.821870000000000    -11.103120000000001      3.260820000000000
C       6.075370000000000    -12.127870000000000      4.159690000000000
C       5.636900000000000    -11.680580000000001      5.385900000000000
N       5.108640000000000    -10.452769999999999      5.259110000000000
C       5.694250000000000    -12.403359999999999      6.717370000000000
N       5.346530000000000    -11.465690000000000      7.805940000000000
C       5.362600000000000    -11.894069999999999      9.215150000000000
H       6.048960000000000    -11.104229999999999      2.203960000000000
H       4.882000000000000     -9.131280000000000      3.578550000000000
H       6.539200000000000    -13.082070000000000      3.946050000000000
H       4.983600000000000    -13.255170000000000      6.677410000000000
H       6.726280000000000    -12.773470000000000      6.868540000000000
C       6.799860000000000    -12.265319999999999      9.630830000000000
C       4.893560000000000    -10.716020000000000     10.087040000000000
C       4.418690000000000    -13.088450000000000      9.438170000000000
H       7.480600000000000    -11.400060000000000      9.471520000000000
H       6.839070000000000    -12.549170000000000     10.704150000000000
H       7.182750000000000    -13.123960000000000      9.043020000000000
H       3.857060000000000    -10.416969999999999      9.821090000000000
H       4.911130000000000    -10.993539999999999     11.164429999999999
H       5.557570000000000     -9.836869999999999      9.946289999999999
H       3.383200000000000    -12.820970000000001      9.140689999999999
H       4.743680000000000    -13.969760000000001      8.847910000000001
H       4.414580000000000    -13.385030000000000     10.509380000000000
