110

Mg      0.780970000000000     -0.339370000000000     -0.533830000000000
C      -0.336170000000000      2.145040000000000      1.314350000000000
C      -1.361800000000000      2.200610000000000     -0.847590000000000
O      -0.324450000000000      1.701900000000000     -0.031310000000000
C      -1.682460000000000      2.029530000000000      2.033000000000000
C      -1.229070000000000      3.693220000000000     -1.106160000000000
H       0.361140000000000      1.478210000000000      1.858300000000000
H       0.082320000000000      3.168400000000000      1.396430000000000
H      -1.273510000000000      1.686070000000000     -1.823490000000000
H      -2.365630000000000      1.918900000000000     -0.473220000000000
H      -1.992820000000000      4.001080000000000     -1.849870000000000
H      -0.219350000000000      3.922140000000000     -1.505530000000000
H      -1.390570000000000      4.259060000000000     -0.168030000000000
H      -2.093810000000000      1.011890000000000      1.930760000000000
H      -2.407230000000000      2.766850000000000      1.633300000000000
H      -1.541020000000000      2.228910000000000      3.113980000000000
H       2.620440000000000      1.024340000000000     -1.898490000000000
C       1.801690000000000     -0.339150000000000     -3.409310000000000
C       2.298510000000000     -0.032780000000000     -1.986040000000000
C       0.553000000000000      0.446660000000000     -3.856660000000000
H       2.630610000000000     -0.136620000000000     -4.118820000000000
H       1.546260000000000     -1.419030000000000     -3.465030000000000
H       0.300810000000000      0.138720000000000     -4.896640000000000
H      -0.309700000000000      0.177110000000000     -3.214810000000000
C       0.745280000000000      1.963110000000000     -3.852320000000000
H       3.144190000000000     -0.697510000000000     -1.725560000000000
H       0.951810000000000      2.325500000000000     -2.827100000000000
H       1.583330000000000      2.252740000000000     -4.519360000000000
H      -0.182950000000000      2.459110000000000     -4.212240000000000
C      -3.109450000000000     -0.826200000000000     -0.888410000000000
C      -2.197710000000000     -1.520790000000000     -1.650010000000000
C      -1.206220000000000     -1.973320000000000     -0.797350000000000
C      -1.490150000000000     -1.545230000000000      0.437490000000000
N      -2.706580000000000     -0.833940000000000      0.453960000000000
C      -0.627320000000000     -1.737960000000000      1.656200000000000
N       0.678140000000000     -1.108910000000000      1.420090000000000
C       1.757740000000000     -1.297390000000000      2.419130000000000
H      -2.247460000000000     -1.658120000000000     -2.721810000000000
H      -3.996230000000000     -0.330300000000000     -1.256710000000000
H      -0.322970000000000     -2.528610000000000     -1.090050000000000
H      -0.524090000000000     -2.820830000000000      1.852210000000000
H      -1.125340000000000     -1.245090000000000      2.517560000000000
C       2.210080000000000     -2.770300000000000      2.461930000000000
C       2.957860000000000     -0.423410000000000      2.019260000000000
C       1.286750000000000     -0.865170000000000      3.828800000000000
H       2.581050000000000     -3.091630000000000      1.466480000000000
H       3.025250000000000     -2.906210000000000      3.206320000000000
H       1.382230000000000     -3.441740000000000      2.766980000000000
H       2.680050000000000      0.651660000000000      2.014420000000000
H       3.798960000000000     -0.559100000000000      2.736160000000000
H       3.316870000000000     -0.698620000000000      1.005510000000000
H       0.956560000000000      0.195480000000000      3.826710000000000
H       0.444790000000000     -1.493650000000000      4.186750000000000
H       2.110490000000000     -0.966340000000000      4.569340000000000
Na     -6.790180000000000    -13.376420000000000     -0.372130000000000
C      -8.143810000000000    -10.703390000000001      0.958910000000000
C      -6.120660000000000    -10.179580000000000     -0.009440000000000
O      -6.780880000000000    -11.060200000000000      0.874300000000000
C      -8.848240000000001    -11.647040000000001      1.923030000000000
C      -4.655230000000000    -10.578790000000000     -0.108580000000000
H      -8.257660000000000     -9.669300000000000      1.353810000000000
H      -8.639720000000001    -10.798430000000000     -0.033860000000000
H      -6.558770000000000    -10.242599999999999     -1.031750000000000
H      -6.163660000000000     -9.133190000000001      0.370360000000000
H      -4.567060000000000    -11.616750000000000     -0.494490000000000
H      -4.125180000000000     -9.892230000000000     -0.802320000000000
H      -4.174620000000000    -10.520630000000001      0.891110000000000
H      -8.388880000000000    -11.575950000000001      2.931840000000000
H      -9.922250000000000    -11.373910000000000      1.997790000000000
H      -8.768549999999999    -12.693800000000000      1.560100000000000
Na     -5.807950000000000    -10.401570000000000      3.233400000000000
Mg     -5.774010000000000     -3.740990000000000      3.061750000000000
H      -5.211550000000000     -0.811170000000000      3.853050000000000
C      -7.375420000000000     -0.746150000000000      3.542700000000000
C      -5.981590000000000     -1.210690000000000      3.161470000000000
C      -7.455150000000000      0.774270000000000      3.439930000000000
H      -8.114940000000001     -1.215690000000000      2.857950000000000
H      -7.594940000000000     -1.076440000000000      4.581760000000000
H      -6.703410000000000      1.228200000000000      4.121860000000000
H      -7.228110000000000      1.083930000000000      2.396300000000000
C      -8.838930000000000      1.281840000000000      3.818430000000000
H      -5.741880000000000     -0.958730000000000      2.107160000000000
H      -9.604939999999999      0.854780000000000      3.136800000000000
H      -9.078450000000000      0.999150000000000      4.865550000000000
H      -8.856180000000000      2.388070000000000      3.731360000000000
C      -2.814120000000000     -4.802190000000000      3.455370000000000
C      -2.310130000000000     -6.074710000000000      3.673870000000000
C      -3.397600000000000     -6.934190000000000      3.718390000000000
C      -4.516220000000000     -6.152470000000000      3.540860000000000
N      -4.148930000000000     -4.870460000000000      3.372880000000000
C      -5.967290000000000     -6.593460000000000      3.514090000000000
N      -6.854410000000000     -5.411600000000000      3.474430000000000
C      -8.320760000000000     -5.553020000000000      3.464610000000000
H      -1.270190000000000     -6.346610000000000      3.784970000000000
H      -2.236140000000000     -3.890680000000000      3.360760000000000
H      -3.376270000000000     -8.005480000000000      3.872420000000000
H      -6.170810000000000     -7.176320000000000      4.432920000000000
H      -6.112890000000000     -7.228850000000000      2.616050000000000
C      -8.791499999999999     -6.183420000000000      4.789050000000000
C      -8.952050000000000     -4.154570000000000      3.339020000000000
C      -8.776800000000000     -6.411970000000000      2.272600000000000
H      -8.468500000000001     -5.555380000000000      5.648350000000000
H      -9.898759999999999     -6.269000000000000      4.813010000000000
H      -8.372339999999999     -7.201110000000000      4.922490000000000
H      -8.643150000000000     -3.666990000000000      2.389820000000000
H     -10.062840000000000     -4.223700000000000      3.347290000000000
H      -8.641570000000000     -3.504680000000000      4.185140000000000
H      -8.433650000000000     -5.959420000000000      1.317420000000000
H      -8.369220000000000     -7.439760000000000      2.347100000000000
H      -9.885009999999999     -6.490620000000000      2.250160000000000
