185

Mg      0.187140000000000      0.452050000000000     -0.179920000000000
C       0.214240000000000     -1.882380000000000     -2.776150000000000
C       1.731870000000000     -2.387470000000000     -1.004320000000000
O       0.604140000000000     -1.649510000000000     -1.435510000000000
C      -0.291630000000000     -3.298860000000000     -3.028700000000000
C       3.014200000000000     -2.040630000000000     -1.756050000000000
H      -0.631210000000000     -1.189740000000000     -2.978590000000000
H       1.006310000000000     -1.607150000000000     -3.498160000000000
H       1.905590000000000     -2.103690000000000      0.052610000000000
H       1.532790000000000     -3.478000000000000     -0.982990000000000
H       3.176870000000000     -0.942980000000000     -1.750400000000000
H       3.873410000000000     -2.532240000000000     -1.254030000000000
H       2.970410000000000     -2.407990000000000     -2.800060000000000
H      -1.097720000000000     -3.558650000000000     -2.313500000000000
H      -0.696650000000000     -3.357370000000000     -4.060800000000000
H       0.535870000000000     -4.029900000000000     -2.940190000000000
H      -0.426480000000000      1.657090000000000     -2.811220000000000
C       1.760670000000000      1.559590000000000     -2.986370000000000
C       0.489990000000000      1.818630000000000     -2.207050000000000
C       1.858600000000000      2.550670000000000     -4.132680000000000
H       2.636920000000000      1.667580000000000     -2.314550000000000
H       1.745700000000000      0.523730000000000     -3.377190000000000
H       0.971810000000000      2.432520000000000     -4.792890000000000
H       1.870330000000000      3.582960000000000     -3.719950000000000
C       3.124000000000000      2.315790000000000     -4.941540000000000
H       0.496510000000000      2.811340000000000     -1.711270000000000
H       4.019580000000000      2.440000000000000     -4.295910000000000
H       3.119660000000000      1.290550000000000     -5.369730000000000
H       3.166570000000000      3.054100000000000     -5.767450000000000
C      -3.030900000000000      0.140480000000000      3.455080000000000
C      -2.284700000000000      1.045880000000000      4.176940000000000
C      -0.952400000000000      0.780240000000000      3.900370000000000
C      -0.938490000000000     -0.229100000000000      3.033220000000000
N      -2.259480000000000     -0.627300000000000      2.777260000000000
C       0.251870000000000     -0.948940000000000      2.427880000000000
N       1.089550000000000     -0.172360000000000      1.494800000000000
C       2.118520000000000      0.797200000000000      1.896450000000000
H      -2.675400000000000      1.804450000000000      4.843780000000000
H      -4.107740000000000      0.056950000000000      3.437530000000000
H      -0.112080000000000      1.294200000000000      4.331510000000000
H      -0.167770000000000     -1.782930000000000      1.824640000000000
H       0.863690000000000     -1.420460000000000      3.216460000000000
C       2.727830000000000      0.426220000000000      3.248380000000000
C       3.231320000000000      0.753310000000000      0.830980000000000
C       1.539980000000000      2.227260000000000      1.900190000000000
H       3.133050000000000     -0.608250000000000      3.199320000000000
H       3.547180000000000      1.123420000000000      3.513290000000000
H       1.959610000000000      0.471590000000000      4.038240000000000
H       2.821130000000000      1.000770000000000     -0.168440000000000
H       4.035610000000000      1.485330000000000      1.060180000000000
H       3.681810000000000     -0.259920000000000      0.767340000000000
H       1.195880000000000      2.521270000000000      0.883630000000000
H       0.677590000000000      2.330640000000000      2.573070000000000
H       2.314810000000000      2.956210000000000      2.220110000000000
C      -2.955980000000000      0.744510000000000     -0.103620000000000
C      -2.439940000000000     -1.548820000000000     -0.304440000000000
O      -2.020880000000000     -0.220340000000000     -0.544140000000000
C      -2.222720000000000      1.963750000000000      0.460330000000000
C      -3.477500000000000     -1.985320000000000     -1.318900000000000
H      -3.559200000000000      1.070340000000000     -0.974530000000000
H      -3.638040000000000      0.366740000000000      0.688130000000000
H      -1.554340000000000     -2.209010000000000     -0.392020000000000
H      -2.810910000000000     -1.712420000000000      0.721980000000000
H      -3.075730000000000     -1.859080000000000     -2.345260000000000
H      -3.728430000000000     -3.052050000000000     -1.146240000000000
H      -4.392800000000000     -1.371580000000000     -1.197890000000000
H      -1.609780000000000      1.692340000000000      1.338530000000000
H      -1.548440000000000      2.410420000000000     -0.297420000000000
H      -2.958170000000000      2.731250000000000      0.777550000000000
Na     -6.100330000000000     -3.743980000000000     15.355409999999999
C      -6.855630000000000     -6.227000000000000     17.216519999999999
C      -8.059490000000000     -4.407930000000000     18.078560000000000
O      -6.865100000000000     -4.831980000000000     17.449770000000001
C      -7.464920000000000     -6.553920000000000     15.856920000000001
C      -7.927140000000000     -4.450060000000000     19.598820000000000
H      -5.797450000000000     -6.564110000000000     17.214400000000001
H      -7.360610000000000     -6.801790000000000     18.025220000000001
H      -8.248239999999999     -3.357170000000000     17.771300000000000
H      -8.948130000000001     -4.991020000000000     17.749369999999999
H      -7.094220000000000     -3.798280000000000     19.934899999999999
H      -8.868440000000000     -4.085210000000000     20.060320000000001
H      -7.739330000000000     -5.486400000000000     19.947520000000001
H      -6.906070000000000     -6.033370000000000     15.051310000000001
H      -7.411110000000000     -7.648210000000000     15.680470000000000
H      -8.528190000000000     -6.241000000000000     15.819540000000000
C      -9.272489999999999     -3.283980000000000     14.336240000000000
C      -7.728890000000000     -2.140910000000000     12.923109999999999
O      -7.939650000000000     -2.849420000000000     14.132080000000000
C      -9.761070000000000     -4.288460000000000     13.291969999999999
C      -8.504450000000000     -0.826290000000000     12.841900000000001
H      -9.284560000000001     -3.809210000000000     15.314310000000001
H      -9.971660000000000     -2.430470000000000     14.450040000000000
H      -6.649310000000000     -1.878460000000000     12.896599999999999
H      -7.899570000000000     -2.779940000000000     12.032230000000000
H      -8.293540000000000     -0.204320000000000     13.737140000000000
H      -8.189489999999999     -0.271050000000000     11.933700000000000
H      -9.594659999999999     -1.011850000000000     12.762750000000000
H      -9.056170000000000     -5.143670000000000     13.224610000000000
H     -10.760380000000000     -4.668410000000000     13.591690000000000
H      -9.867749999999999     -3.810580000000000     12.297340000000000
Na     -5.071470000000000     -3.902550000000000     18.734919999999999
C      -3.322320000000000     -2.825380000000000     16.114680000000000
C      -4.756380000000000     -1.179270000000000     16.958430000000000
O      -4.537440000000000     -2.564640000000000     16.786349999999999
C      -2.975740000000000     -4.298740000000000     16.289050000000000
C      -5.285860000000000     -0.523440000000000     15.684910000000000
H      -3.435710000000000     -2.625760000000000     15.027509999999999
H      -2.476090000000000     -2.234510000000000     16.531820000000000
H      -5.532620000000000     -1.065360000000000     17.745300000000000
H      -3.853430000000000     -0.653870000000000     17.340750000000000
H      -6.219280000000000     -1.025170000000000     15.356800000000000
H      -5.506610000000000      0.545990000000000     15.884760000000000
H      -4.535110000000000     -0.578880000000000     14.871740000000001
H      -3.793800000000000     -4.936210000000000     15.890290000000000
H      -2.038390000000000     -4.534150000000000     15.742599999999999
H      -2.830280000000000     -4.532930000000000     17.364339999999999
C      -2.390880000000000     -3.658210000000000     20.669219999999999
C      -3.048700000000000     -5.874880000000000     20.547310000000000
O      -3.262700000000000     -4.575040000000000     20.053640000000001
C      -2.692430000000000     -2.272080000000000     20.115240000000000
C      -3.998640000000000     -6.818620000000000     19.822050000000001
H      -2.552830000000000     -3.631880000000000     21.770499999999998
H      -1.331390000000000     -3.902310000000000     20.430800000000001
H      -2.007060000000000     -6.210370000000000     20.342690000000001
H      -3.273890000000000     -5.926220000000000     21.636410000000001
H      -3.798110000000000     -6.789610000000000     18.729620000000001
H      -3.858910000000000     -7.857510000000000     20.186350000000001
H      -5.051850000000000     -6.511360000000000     20.001290000000001
H      -3.746000000000000     -1.993990000000000     20.334420000000001
H      -2.017100000000000     -1.520170000000000     20.573229999999999
H      -2.543300000000000     -2.265120000000000     19.015630000000002
Mg      0.106500000000000      0.336430000000000     10.425929999999999
C      -2.741000000000000      1.512580000000000     11.374260000000000
C      -2.928980000000000     -0.757210000000000     10.674379999999999
O      -2.365710000000000      0.517780000000000     10.439030000000001
C      -2.336610000000000      1.202140000000000     12.816039999999999
C      -4.418260000000000     -0.794300000000000     10.360440000000001
H      -2.189520000000000      2.428210000000000     11.084479999999999
H      -3.813750000000000      1.777190000000000     11.288240000000000
H      -2.422300000000000     -1.460270000000000      9.978180000000000
H      -2.706310000000000     -1.146850000000000     11.688350000000000
H      -4.591200000000000     -0.418020000000000      9.330109999999999
H      -4.783220000000000     -1.839690000000000     10.433230000000000
H      -4.984170000000000     -0.175110000000000     11.084970000000000
H      -1.274220000000000      0.893230000000000     12.861430000000000
H      -2.475340000000000      2.110140000000000     13.439249999999999
H      -2.969730000000000      0.399460000000000     13.240010000000000
H       1.309730000000000     -0.802570000000000     12.474510000000000
C       1.255510000000000     -2.304420000000000     10.899800000000001
C       0.598940000000000     -1.221700000000000     11.733260000000000
C       2.411570000000000     -1.719660000000000     10.081410000000000
H       1.617440000000000     -3.094820000000000     11.588630000000000
H       0.505190000000000     -2.738450000000000     10.202070000000001
H       2.012200000000000     -0.997020000000000      9.337759999999999
H       3.121110000000000     -1.181710000000000     10.745540000000000
C       3.173120000000000     -2.820800000000000      9.355060000000000
H      -0.303290000000000     -1.607000000000000     12.250520000000000
H       3.615390000000000     -3.517510000000000     10.099000000000000
H       2.497070000000000     -3.385830000000000      8.679140000000000
H       3.993700000000000     -2.374510000000000      8.755070000000000
C       1.623070000000000      0.305400000000000      6.837240000000000
C       0.367720000000000     -0.180330000000000      7.123780000000000
C      -0.293670000000000      0.793100000000000      7.850580000000000
C       0.533790000000000      1.830000000000000      8.013400000000001
N       1.765590000000000      1.596050000000000      7.367960000000000
C       0.232160000000000      3.098400000000000      8.766590000000001
N       0.130750000000000      2.856750000000000     10.217730000000000
C       1.303440000000000      3.216610000000000     11.054240000000000
H      -0.013230000000000     -1.152320000000000      6.838740000000000
H       2.393090000000000     -0.220890000000000      6.291930000000000
H      -1.302130000000000      0.716810000000000      8.227390000000000
H      -0.734110000000000      3.506260000000000      8.400639999999999
H       1.009480000000000      3.842980000000000      8.529389999999999
C       1.555830000000000      4.738250000000000     11.019959999999999
C       0.982470000000000      2.827680000000000     12.510610000000000
C       2.571970000000000      2.448700000000000     10.626270000000000
H       0.632400000000000      5.284370000000000     11.308490000000001
H       2.364740000000000      5.012950000000000     11.730710000000000
H       1.878270000000000      5.091620000000000     10.022300000000000
H       0.834040000000000      1.732660000000000     12.600660000000000
H       1.816300000000000      3.107730000000000     13.192190000000000
H       0.060230000000000      3.338910000000000     12.861720000000000
H       2.418580000000000      1.352510000000000     10.719020000000000
H       2.852510000000000      2.679390000000000      9.580550000000001
H       3.431660000000000      2.728870000000000     11.273610000000000
