185

Mg     -0.141100000000000      0.459000000000000     -0.010430000000000
C      -2.417810000000000     -1.885020000000000      1.264960000000000
C      -1.643230000000000     -2.390130000000000     -0.934730000000000
O      -1.452100000000000     -1.650300000000000      0.256570000000000
C      -2.381900000000000     -3.301760000000000      1.829790000000000
C      -2.934540000000000     -2.041580000000000     -1.670500000000000
H      -2.172140000000000     -1.192240000000000      2.098680000000000
H      -3.439610000000000     -1.611360000000000      0.939920000000000
H      -0.813510000000000     -2.110330000000000     -1.613880000000000
H      -1.528630000000000     -3.480750000000000     -0.770940000000000
H      -3.007650000000000     -0.944020000000000     -1.816530000000000
H      -2.931140000000000     -2.535730000000000     -2.664390000000000
H      -3.818160000000000     -2.404880000000000     -1.109960000000000
H      -1.359690000000000     -3.559770000000000      2.172220000000000
H      -3.074500000000000     -3.361430000000000      2.695460000000000
H      -2.716730000000000     -4.034460000000000      1.069450000000000
H      -2.132500000000000      1.663300000000000      1.841090000000000
C      -3.373260000000000      1.563400000000000      0.033740000000000
C      -2.062960000000000      1.822460000000000      0.745200000000000
C      -4.417250000000000      2.553780000000000      0.520930000000000
H      -3.228270000000000      1.671550000000000     -1.060980000000000
H      -3.703730000000000      0.527240000000000      0.242190000000000
H      -4.547410000000000      2.436180000000000      1.618890000000000
H      -4.067640000000000      3.586780000000000      0.304590000000000
C      -5.749470000000000      2.316900000000000     -0.171830000000000
H      -1.642100000000000      2.818260000000000      0.494760000000000
H      -5.637010000000000      2.440870000000000     -1.270150000000000
H      -6.116870000000000      1.291250000000000      0.046140000000000
H      -6.487610000000000      3.054310000000000      0.203120000000000
C       4.652070000000000      0.168590000000000      0.980190000000000
C       4.865650000000000      1.053520000000000     -0.045260000000000
C       3.948770000000000      0.767010000000000     -1.050180000000000
C       3.184170000000000     -0.254430000000000     -0.638160000000000
N       3.598210000000000     -0.686190000000000      0.631420000000000
C       2.068630000000000     -0.956420000000000     -1.389030000000000
N       0.847170000000000     -0.172430000000000     -1.638550000000000
C       0.681730000000000      0.799320000000000     -2.730530000000000
H       5.623540000000000      1.826600000000000     -0.050940000000000
H       5.195970000000000      0.119220000000000      1.913210000000000
H       3.895220000000000      1.281090000000000     -1.991900000000000
H       1.749220000000000     -1.799370000000000     -0.737170000000000
H       2.449800000000000     -1.418290000000000     -2.316390000000000
C       1.548910000000000      0.430630000000000     -3.936710000000000
C      -0.797830000000000      0.754020000000000     -3.159670000000000
C       0.972930000000000      2.227390000000000     -2.226210000000000
H       1.301000000000000     -0.602650000000000     -4.261230000000000
H       1.363380000000000      1.127100000000000     -4.778900000000000
H       2.622490000000000      0.473600000000000     -3.677080000000000
H      -1.457110000000000      1.000680000000000     -2.303000000000000
H      -1.003850000000000      1.485550000000000     -3.970750000000000
H      -1.077740000000000     -0.259690000000000     -3.517310000000000
H       0.266280000000000      2.515990000000000     -1.416390000000000
H       1.987700000000000      2.331130000000000     -1.817450000000000
H       0.857970000000000      2.960300000000000     -3.053080000000000
C       1.486810000000000      0.742130000000000      2.681280000000000
C       1.047790000000000     -1.551760000000000      2.341800000000000
O       0.635190000000000     -0.222260000000000      2.094080000000000
C       1.605940000000000      1.960920000000000      1.763430000000000
C       0.683390000000000     -1.986840000000000      3.745890000000000
H       1.037370000000000      1.069050000000000      3.640420000000000
H       2.514410000000000      0.364280000000000      2.872040000000000
H       0.533240000000000     -2.211300000000000      1.614950000000000
H       2.122510000000000     -1.719760000000000      2.162960000000000
H      -0.406450000000000     -1.860610000000000      3.908150000000000
H       0.959100000000000     -3.053630000000000      3.876500000000000
H       1.245840000000000     -1.373590000000000      4.478600000000000
H       2.057630000000000      1.687860000000000      0.792360000000000
H       0.611370000000000      2.407000000000000      1.561940000000000
H       2.249130000000000      2.729560000000000      2.239100000000000
Na     -0.758740000000000     -9.734730000000001     -8.422710000000000
C      -1.495330000000000     -7.829180000000000    -10.882980000000000
C      -3.330640000000000     -7.696820000000000     -9.429080000000001
O      -2.303140000000000     -8.518829999999999     -9.948960000000000
C      -0.328950000000000     -7.137430000000000    -10.184550000000000
C      -4.595630000000000     -7.793250000000000    -10.278100000000000
H      -1.083210000000000     -8.577270000000000    -11.593019999999999
H      -2.073290000000000     -7.104570000000000    -11.499720000000000
H      -3.566270000000000     -8.058050000000000     -8.405300000000000
H      -3.016520000000000     -6.634960000000000     -9.318390000000001
H      -4.958520000000000     -8.841260000000000    -10.317600000000001
H      -5.390050000000000     -7.162220000000000     -9.827900000000000
H      -4.402440000000000     -7.437830000000000    -11.311150000000000
H       0.282180000000000     -7.881960000000000     -9.632610000000000
H       0.311880000000000     -6.637910000000000    -10.940329999999999
H      -0.697960000000000     -6.372220000000000     -9.471600000000000
C      -0.880510000000000     -7.210310000000000     -6.190120000000000
C       0.232180000000000     -9.118570000000000     -5.293930000000000
O      -0.560410000000000     -8.582240000000001     -6.339040000000000
C       0.337630000000000     -6.286270000000000     -6.211270000000000
C      -0.461080000000000     -9.105110000000000     -3.931500000000000
H      -1.504040000000000     -6.936620000000000     -7.066960000000000
H      -1.521860000000000     -7.030860000000000     -5.303160000000000
H       0.412310000000000    -10.184400000000000     -5.551470000000000
H       1.237540000000000     -8.650880000000001     -5.253220000000000
H      -1.451840000000000     -9.601030000000000     -4.003890000000000
H       0.164570000000000     -9.654010000000000     -3.196880000000000
H      -0.586620000000000     -8.068600000000000     -3.558750000000000
H       0.940340000000000     -6.467620000000000     -7.125940000000000
H      -0.006980000000000     -5.231680000000000     -6.210190000000000
H       0.967320000000000     -6.433920000000000     -5.310880000000000
Na     -3.377780000000000    -10.540960000000000    -10.669070000000000
C      -1.132570000000000    -12.597700000000000     -9.312659999999999
C      -2.934340000000000    -12.180520000000000     -7.878630000000000
O      -2.131220000000000    -11.676349999999999     -8.926390000000000
C      -0.558720000000000    -12.160740000000001    -10.654560000000000
C      -2.247560000000000    -12.050060000000000     -6.520710000000000
H      -0.305970000000000    -12.599019999999999     -8.570250000000000
H      -1.537700000000000    -13.626130000000000     -9.444830000000000
H      -3.859480000000000    -11.565780000000000     -7.850220000000000
H      -3.266860000000000    -13.225350000000001     -8.066810000000000
H      -1.977930000000000    -10.990860000000000     -6.330120000000000
H      -2.940170000000000    -12.390850000000000     -5.722900000000000
H      -1.332710000000000    -12.675560000000001     -6.478770000000000
H      -0.140780000000000    -11.134069999999999    -10.578230000000000
H       0.250120000000000    -12.855440000000000    -10.964180000000001
H      -1.352300000000000    -12.168490000000000    -11.430600000000000
C      -4.481960000000000    -12.988550000000000    -12.617680000000000
C      -3.580940000000000    -11.310689999999999    -13.933850000000000
O      -3.769260000000000    -11.775350000000000    -12.619350000000001
C      -4.678580000000000    -13.421279999999999    -11.170959999999999
C      -2.781900000000000    -10.016050000000000    -13.868430000000000
H      -5.487410000000000    -12.860880000000000    -13.078690000000000
H      -3.905150000000000    -13.784079999999999    -13.140580000000000
H      -2.998270000000000    -12.045059999999999    -14.534400000000000
H      -4.558410000000000    -11.090199999999999    -14.419119999999999
H      -1.798000000000000    -10.203849999999999    -13.387650000000001
H      -2.613190000000000     -9.618180000000001    -14.890580000000000
H      -3.333410000000000     -9.257420000000000    -13.271710000000001
H      -5.251900000000000    -12.647890000000000    -10.615510000000000
H      -5.232720000000000    -14.381710000000000    -11.129510000000000
H      -3.692290000000000    -13.555059999999999    -10.680320000000000
Mg     -1.243100000000000     -0.071480000000000    -10.832210000000000
C      -3.081020000000000      0.659720000000000     -8.116210000000001
C      -4.387830000000000      0.973970000000000    -10.092350000000000
O      -3.106280000000000      0.778020000000000     -9.528840000000001
C      -4.041520000000000     -0.381040000000000     -7.535030000000000
C      -5.001560000000000      2.318160000000000     -9.718950000000000
H      -2.059880000000000      0.317020000000000     -7.854510000000000
H      -3.209810000000000      1.649160000000000     -7.631860000000000
H      -4.257870000000000      0.967020000000000    -11.192190000000000
H      -5.069320000000000      0.125200000000000     -9.884810000000000
H      -5.949390000000000      2.451730000000000    -10.281070000000000
H      -4.306920000000000      3.142550000000000     -9.982080000000000
H      -5.225810000000000      2.356280000000000     -8.634620000000000
H      -3.892320000000000     -1.361050000000000     -8.023750000000000
H      -5.095580000000000     -0.058490000000000     -7.653980000000000
H      -3.841950000000000     -0.501410000000000     -6.450990000000000
H      -0.495350000000000      2.444320000000000    -11.449180000000000
C      -0.844880000000000      1.508990000000000    -13.397309999999999
C      -0.293940000000000      1.482450000000000    -11.962970000000000
C      -2.376270000000000      1.648170000000000    -13.501110000000001
H      -0.362690000000000      2.341420000000000    -13.952080000000000
H      -0.568350000000000      0.552730000000000    -13.890900000000000
H      -2.652640000000000      1.637900000000000    -14.579280000000001
H      -2.866020000000000      0.775510000000000    -13.022500000000001
C      -2.923130000000000      2.939530000000000    -12.892709999999999
H       0.800170000000000      1.307540000000000    -11.982609999999999
H      -2.727320000000000      2.972290000000000    -11.803200000000000
H      -2.462480000000000      3.825390000000000    -13.377350000000000
H      -4.023730000000000      2.985020000000000    -13.046070000000000
C      -4.464330000000000     -2.302590000000000    -11.464000000000000
C      -3.484850000000000     -2.125020000000000    -12.413679999999999
C      -2.263370000000000     -2.287920000000000    -11.786110000000001
C      -2.490550000000000     -2.535300000000000    -10.492390000000000
N      -3.871380000000000     -2.584280000000000    -10.221480000000000
C      -1.422270000000000     -2.700680000000000     -9.444640000000000
N      -0.644960000000000     -1.456590000000000     -9.358599999999999
C       0.562500000000000     -1.422460000000000     -8.497909999999999
H      -3.650450000000000     -1.882020000000000    -13.455270000000001
H      -5.528970000000000     -2.226320000000000    -11.633279999999999
H      -1.290890000000000     -2.187950000000000    -12.248500000000000
H      -0.785020000000000     -3.561190000000000     -9.725860000000001
H      -1.913530000000000     -2.903350000000000     -8.469580000000001
C       1.656500000000000     -2.359510000000000     -9.047800000000001
C       1.109420000000000      0.014120000000000     -8.472560000000000
C       0.215520000000000     -1.835950000000000     -7.048740000000000
H       1.932900000000000     -2.070700000000000    -10.083320000000001
H       2.567550000000000     -2.307820000000000     -8.411350000000001
H       1.324060000000000     -3.417610000000000     -9.048850000000000
H       0.355940000000000      0.716410000000000     -8.058020000000001
H       2.021860000000000      0.074620000000000     -7.837360000000000
H       1.376240000000000      0.347710000000000     -9.497220000000000
H      -0.565200000000000     -1.169580000000000     -6.623840000000000
H      -0.151620000000000     -2.881250000000000     -7.001700000000000
H       1.114500000000000     -1.775080000000000     -6.398090000000000
