140

Mg     -0.631830000000000      0.881820000000000     -0.172040000000000
H      -2.332510000000000      2.346180000000000      1.940100000000000
C      -2.760520000000000      0.272840000000000      2.526820000000000
C      -2.476700000000000      1.344170000000000      1.489300000000000
C      -1.658710000000000      0.147910000000000      3.589290000000000
H      -3.714490000000000      0.534850000000000      3.029240000000000
H      -2.891620000000000     -0.705120000000000      2.016340000000000
H      -1.525700000000000      1.114900000000000      4.121680000000000
H      -1.999750000000000     -0.611350000000000      4.323540000000000
C      -0.309110000000000     -0.313900000000000      3.033130000000000
H      -3.285510000000000      1.373880000000000      0.726680000000000
H       0.144690000000000      0.465180000000000      2.388000000000000
H       0.383820000000000     -0.508240000000000      3.880820000000000
H      -0.421340000000000     -1.255400000000000      2.454160000000000
C       2.147840000000000      2.206280000000000      0.618630000000000
C       3.446130000000000      1.906040000000000      0.238280000000000
C       3.373890000000000      0.817490000000000     -0.617260000000000
C       2.040770000000000      0.489370000000000     -0.708430000000000
N       1.311100000000000      1.338500000000000      0.028810000000000
C       1.414200000000000     -0.630870000000000     -1.515130000000000
N      -0.001010000000000     -0.798850000000000     -1.125400000000000
C      -0.822930000000000     -1.872690000000000     -1.712780000000000
H       4.344880000000000      2.423620000000000      0.543690000000000
H       1.841290000000000      3.009390000000000      1.277370000000000
H       4.196590000000000      0.315450000000000     -1.107730000000000
H       1.501040000000000     -0.362610000000000     -2.588370000000000
H       1.968010000000000     -1.563950000000000     -1.304890000000000
C      -0.272840000000000     -3.242650000000000     -1.269500000000000
C      -2.264670000000000     -1.736780000000000     -1.189780000000000
C      -0.839020000000000     -1.776670000000000     -3.248590000000000
H      -0.272960000000000     -3.309570000000000     -0.159740000000000
H      -0.893430000000000     -4.069910000000000     -1.674390000000000
H       0.764270000000000     -3.399900000000000     -1.627400000000000
H      -2.708000000000000     -0.765550000000000     -1.497060000000000
H      -2.905120000000000     -2.553700000000000     -1.591900000000000
H      -2.287390000000000     -1.797100000000000     -0.081320000000000
H      -1.233490000000000     -0.788930000000000     -3.569960000000000
H       0.180360000000000     -1.907370000000000     -3.666250000000000
H      -1.482850000000000     -2.573010000000000     -3.680670000000000
Na      0.207170000000000    -13.945130000000001     -3.117590000000000
C      -2.762970000000000    -14.510109999999999     -4.154970000000000
C      -2.986430000000000    -12.784680000000000     -2.581140000000000
O      -2.279400000000000    -13.954580000000000     -2.947080000000000
C      -2.026700000000000    -13.923090000000000     -5.354960000000000
C      -4.188470000000000    -13.119540000000001     -1.701840000000000
H      -2.569480000000000    -15.603440000000001     -4.128050000000000
H      -3.864200000000000    -14.395060000000001     -4.271680000000000
H      -2.294520000000000    -12.139419999999999     -1.998720000000000
H      -3.304300000000000    -12.182729999999999     -3.461370000000000
H      -3.862180000000000    -13.644230000000000     -0.780140000000000
H      -4.703160000000000    -12.181020000000000     -1.409250000000000
H      -4.907660000000000    -13.762620000000000     -2.249750000000000
H      -0.936050000000000    -14.108150000000000     -5.263430000000000
H      -2.393730000000000    -14.402509999999999     -6.286150000000000
H      -2.203420000000000    -12.830530000000000     -5.425350000000000
C       0.170920000000000    -10.744320000000000     -4.192430000000000
C       2.384400000000000    -11.481150000000000     -3.704800000000000
O       0.994360000000000    -11.740280000000000     -3.611990000000000
C       0.364620000000000    -10.585850000000001     -5.701240000000000
C       2.824820000000000    -10.231560000000000     -2.942740000000000
H      -0.877450000000000    -11.075310000000000     -4.038210000000000
H       0.256950000000000     -9.775729999999999     -3.658710000000000
H       2.897560000000000    -12.344350000000000     -3.229120000000000
H       2.736430000000000    -11.472479999999999     -4.757000000000000
H       2.477720000000000    -10.289400000000001     -1.890260000000000
H       3.932890000000000    -10.166390000000000     -2.954610000000000
H       2.428340000000000     -9.312540000000000     -3.419600000000000
H       0.241830000000000    -11.566280000000001     -6.207800000000000
H      -0.396520000000000     -9.879619999999999     -6.094230000000000
H       1.363740000000000    -10.165800000000001     -5.934560000000000
Na     -2.269530000000000    -15.352370000000001     -0.995500000000000
C       0.961900000000000    -16.154219999999999     -1.203920000000000
C       0.592630000000000    -14.292389999999999      0.165840000000000
O       0.135710000000000    -15.037960000000000     -0.944510000000000
C       0.226450000000000    -17.096789999999999     -2.148410000000000
C       1.759090000000000    -13.378130000000001     -0.202920000000000
H       1.898420000000000    -15.828490000000000     -1.705230000000000
H       1.195750000000000    -16.728300000000001     -0.279270000000000
H      -0.249960000000000    -13.648360000000000      0.497610000000000
H       0.843550000000000    -14.940009999999999      1.034960000000000
H       1.466240000000000    -12.702840000000000     -1.033050000000000
H       2.037270000000000    -12.761490000000000      0.677360000000000
H       2.645100000000000    -13.971860000000000     -0.507330000000000
H      -0.032850000000000    -16.570869999999999     -3.092170000000000
H       0.869790000000000    -17.969169999999998     -2.389000000000000
H      -0.707500000000000    -17.462640000000000     -1.673070000000000
C      -2.805780000000000    -17.930660000000000      1.020400000000000
C      -3.999550000000000    -18.235890000000001     -0.939230000000000
O      -3.043940000000000    -17.443000000000001     -0.277810000000000
C      -1.790560000000000    -17.015930000000001      1.692330000000000
C      -4.190810000000000    -17.675490000000000     -2.342090000000000
H      -3.738110000000000    -17.916200000000000      1.628950000000000
H      -2.374360000000000    -18.956060000000001      0.982080000000000
H      -3.645650000000000    -19.287230000000001     -1.033680000000000
H      -4.979980000000000    -18.194630000000000     -0.413310000000000
H      -3.226970000000000    -17.703320000000001     -2.894080000000000
H      -4.940570000000000    -18.277740000000001     -2.895920000000000
H      -4.542250000000000    -16.622290000000000     -2.287190000000000
H      -2.187910000000000    -15.979369999999999      1.747460000000000
H      -1.571720000000000    -17.374580000000002      2.719330000000000
H      -0.847470000000000    -17.005859999999998      1.107630000000000
Mg     -0.497620000000000    -10.065530000000001      2.146870000000000
H      -0.250700000000000    -12.071210000000001      4.595670000000000
C       0.319120000000000    -10.207060000000000      5.594200000000000
C       0.272720000000000    -11.118050000000000      4.377970000000000
C      -1.076730000000000     -9.845700000000001      6.120380000000000
H       0.881080000000000    -10.733240000000000      6.393920000000000
H       0.867840000000000     -9.276570000000000      5.335410000000000
H      -1.632630000000000    -10.769560000000000      6.391450000000000
H      -0.943160000000000     -9.236260000000000      7.039110000000000
C      -1.904580000000000     -9.026850000000000      5.127770000000000
H       1.300380000000000    -11.324380000000000      4.008900000000000
H      -2.136430000000000     -9.620210000000000      4.220390000000000
H      -2.863650000000000     -8.733660000000000      5.606670000000000
H      -1.362010000000000     -8.102430000000000      4.835410000000000
C      -3.555730000000000    -10.653689999999999      1.516260000000000
C      -4.473320000000000     -9.998799999999999      0.711190000000000
C      -3.819140000000000     -8.909780000000000      0.155400000000000
C      -2.538250000000000     -8.934770000000000      0.661450000000000
N      -2.386450000000000     -9.995870000000000      1.465750000000000
C      -1.411240000000000     -7.956290000000000      0.389180000000000
N      -0.297030000000000     -8.211080000000001      1.327000000000000
C       0.914240000000000     -7.372240000000000      1.314550000000000
H      -5.503230000000000    -10.283429999999999      0.543830000000000
H      -3.733630000000000    -11.550570000000000      2.095280000000000
H      -4.232980000000000     -8.178410000000000     -0.525250000000000
H      -1.088400000000000     -8.089130000000001     -0.664220000000000
H      -1.795060000000000     -6.930530000000000      0.545600000000000
C       0.552120000000000     -5.930170000000000      1.720140000000000
C       1.906970000000000     -7.932780000000000      2.348420000000000
C       1.577550000000000     -7.383970000000000     -0.073630000000000
H       0.077590000000000     -5.921950000000000      2.726120000000000
H       1.458930000000000     -5.289320000000000      1.754120000000000
H      -0.154170000000000     -5.474460000000000      0.998640000000000
H       2.198810000000000     -8.973580000000000      2.091540000000000
H       2.829020000000000     -7.310780000000000      2.384280000000000
H       1.454630000000000     -7.937170000000000      3.362770000000000
H       1.839730000000000     -8.422540000000000     -0.365400000000000
H       0.902050000000000     -6.955880000000000     -0.842610000000000
H       2.505970000000000     -6.772930000000000     -0.065290000000000
