110

Mg     -0.080780000000000      0.954160000000000     -0.017260000000000
C       0.165030000000000     -1.740870000000000      1.856910000000000
C      -1.987570000000000     -1.655420000000000      0.814170000000000
O      -0.805860000000000     -0.971220000000000      1.169660000000000
C       0.500610000000000     -3.092320000000000      1.222670000000000
C      -2.824300000000000     -2.033140000000000      2.026400000000000
H       1.099040000000000     -1.146360000000000      1.825370000000000
H      -0.101380000000000     -1.848410000000000      2.927910000000000
H      -2.587730000000000     -0.955910000000000      0.201240000000000
H      -1.792040000000000     -2.515720000000000      0.144080000000000
H      -3.792480000000000     -2.451150000000000      1.681340000000000
H      -3.016890000000000     -1.135770000000000      2.650100000000000
H      -2.296950000000000     -2.795710000000000      2.632190000000000
H       0.746700000000000     -2.972930000000000      0.155120000000000
H      -0.344090000000000     -3.801380000000000      1.334790000000000
H       1.389440000000000     -3.522510000000000      1.722960000000000
H      -1.393020000000000      2.487790000000000      1.722930000000000
C      -2.315550000000000      3.024840000000000     -0.193410000000000
C      -1.091490000000000      2.687630000000000      0.675110000000000
C      -3.355430000000000      1.895660000000000     -0.336390000000000
H      -2.810440000000000      3.921000000000000      0.234990000000000
H      -1.960060000000000      3.273960000000000     -1.216190000000000
H      -4.185780000000000      2.265270000000000     -0.979750000000000
H      -2.898560000000000      1.028300000000000     -0.853930000000000
C      -3.960200000000000      1.443300000000000      0.992610000000000
H      -0.366540000000000      3.523640000000000      0.654120000000000
H      -3.177630000000000      1.021390000000000      1.651910000000000
H      -4.453760000000000      2.293600000000000      1.506950000000000
H      -4.718750000000000      0.651000000000000      0.808180000000000
C      -1.151290000000000     -1.838440000000000     -2.575260000000000
C      -1.281240000000000     -0.494630000000000     -2.841320000000000
C      -0.098630000000000      0.117690000000000     -2.464870000000000
C       0.713850000000000     -0.817690000000000     -1.961070000000000
N       0.114860000000000     -2.091310000000000     -2.030290000000000
C       2.069090000000000     -0.572620000000000     -1.352040000000000
N       1.919360000000000      0.334890000000000     -0.207640000000000
C       3.135960000000000      0.848900000000000      0.466630000000000
H      -2.162010000000000     -0.015980000000000     -3.247650000000000
H      -1.906730000000000     -2.593550000000000     -2.739840000000000
H       0.109790000000000      1.179750000000000     -2.516300000000000
H       2.735800000000000     -0.145070000000000     -2.123610000000000
H       2.475350000000000     -1.544950000000000     -1.002310000000000
C       3.924050000000000      1.784420000000000     -0.471150000000000
C       2.711060000000000      1.642350000000000      1.713070000000000
C       4.051500000000000     -0.315110000000000      0.917230000000000
H       3.293850000000000      2.643590000000000     -0.781800000000000
H       4.831450000000000      2.174890000000000      0.039900000000000
H       4.271620000000000      1.251740000000000     -1.379170000000000
H       2.171800000000000      0.990290000000000      2.432100000000000
H       3.600950000000000      2.065640000000000      2.231440000000000
H       2.042130000000000      2.481370000000000      1.428670000000000
H       3.507760000000000     -1.004820000000000      1.597480000000000
H       4.423280000000000     -0.899340000000000      0.049850000000000
H       4.942620000000000      0.070070000000000      1.460130000000000
Na      2.052330000000000    -10.574470000000000      6.785940000000000
C       1.158880000000000    -13.641400000000001      7.412070000000000
C      -0.282700000000000    -12.162060000000000      8.432790000000001
O       1.073960000000000    -12.501429999999999      8.240340000000000
C       2.623340000000000    -14.006520000000000      7.213330000000000
C      -0.367610000000000    -10.924379999999999      9.314819999999999
H       0.653180000000000    -14.513529999999999      7.885890000000000
H       0.721490000000000    -13.434110000000000      6.408910000000000
H      -0.772680000000000    -11.920180000000000      7.462070000000000
H      -0.825200000000000    -12.986160000000000      8.949930000000000
H       0.152430000000000    -10.071460000000000      8.828920000000000
H      -1.431930000000000    -10.650499999999999      9.475610000000000
H       0.104080000000000    -11.125130000000000     10.300420000000001
H       3.097640000000000    -14.232469999999999      8.191990000000001
H       2.701750000000000    -14.902580000000000      6.561630000000000
H       3.165650000000000    -13.164859999999999      6.732440000000000
Na      1.841850000000000    -13.386509999999999     10.601850000000001
Mg      0.545050000000000     -5.750710000000000      7.588200000000000
H      -0.507830000000000     -3.481480000000000      9.509690000000001
C       0.093980000000000     -2.254530000000000      7.796350000000000
C       0.261330000000000     -3.456400000000000      8.711360000000001
C      -1.276230000000000     -2.215000000000000      7.105270000000000
H       0.213500000000000     -1.338980000000000      8.412409999999999
H       0.894670000000000     -2.265190000000000      7.026550000000000
H      -2.086620000000000     -2.193890000000000      7.866220000000000
H      -1.326310000000000     -1.275780000000000      6.515130000000000
C      -1.509080000000000     -3.385100000000000      6.146900000000000
H       1.277800000000000     -3.463090000000000      9.160850000000000
H      -1.558130000000000     -4.345620000000000      6.698630000000000
H      -2.475990000000000     -3.237050000000000      5.619090000000000
H      -0.700450000000000     -3.436160000000000      5.386650000000000
C      -2.160260000000000     -7.410930000000000      7.473830000000000
C      -2.570330000000000     -8.452199999999999      6.655620000000000
C      -1.531670000000000     -8.699830000000000      5.771530000000000
C      -0.543990000000000     -7.789980000000000      6.071780000000000
N      -0.929180000000000     -7.029220000000000      7.110660000000000
C       0.800310000000000     -7.615270000000000      5.395540000000000
N       1.438500000000000     -6.367970000000000      5.865540000000000
C       2.739950000000000     -5.932150000000000      5.329860000000000
H      -3.515680000000000     -8.973760000000000      6.699130000000000
H      -2.729940000000000     -6.968650000000000      8.282760000000000
H      -1.505450000000000     -9.448130000000001      4.989610000000000
H       1.423340000000000     -8.499380000000000      5.639550000000000
H       0.635320000000000     -7.554670000000000      4.303100000000000
C       2.600000000000000     -5.607430000000000      3.830130000000000
C       3.169000000000000     -4.649920000000000      6.065290000000000
C       3.813690000000000     -7.013660000000000      5.542800000000000
H       1.825710000000000     -4.823530000000000      3.684530000000000
H       3.560750000000000     -5.236750000000000      3.413600000000000
H       2.305340000000000     -6.502460000000000      3.246070000000000
H       3.288170000000000     -4.839760000000000      7.153400000000000
H       4.139450000000000     -4.276600000000000      5.668550000000000
H       2.411350000000000     -3.849060000000000      5.930870000000000
H       3.916340000000000     -7.248590000000000      6.623770000000000
H       3.555200000000000     -7.944740000000000      4.997830000000000
H       4.797220000000000     -6.664070000000000      5.160820000000000
