110

Mg      0.421410000000000      0.353150000000000      0.133070000000000
C       1.412620000000000     -0.504460000000000     -2.773650000000000
C       1.227760000000000      1.865930000000000     -2.588980000000000
O       0.678940000000000      0.601470000000000     -2.284670000000000
C       2.846090000000000     -0.587550000000000     -2.250100000000000
C       1.075690000000000      2.207470000000000     -4.062080000000000
H       0.890200000000000     -1.401710000000000     -2.395950000000000
H       1.357190000000000     -0.584480000000000     -3.877310000000000
H       0.639720000000000      2.609320000000000     -2.007440000000000
H       2.273460000000000      1.982130000000000     -2.237080000000000
H       0.019850000000000      2.055730000000000     -4.370470000000000
H       1.356830000000000      3.268110000000000     -4.226380000000000
H       1.740510000000000      1.563850000000000     -4.672280000000000
H       2.871340000000000     -0.417030000000000     -1.155510000000000
H       3.255190000000000     -1.597230000000000     -2.463620000000000
H       3.488520000000000      0.160070000000000     -2.755550000000000
H       2.517210000000000      0.772270000000000      1.605750000000000
C       1.312810000000000      2.584840000000000      1.746450000000000
C       1.957720000000000      1.469040000000000      0.950360000000000
C       0.279140000000000      2.020580000000000      2.727910000000000
H       2.119840000000000      3.119950000000000      2.284740000000000
H       0.799700000000000      3.287400000000000      1.052080000000000
H      -0.571170000000000      1.584710000000000      2.162950000000000
H       0.730330000000000      1.218110000000000      3.348640000000000
C      -0.236370000000000      3.112780000000000      3.656610000000000
H       2.622830000000000      1.868300000000000      0.158860000000000
H       0.607620000000000      3.511350000000000      4.259350000000000
H      -0.695100000000000      3.940530000000000      3.075680000000000
H      -0.996390000000000      2.691320000000000      4.347480000000000
C      -3.146480000000000      0.911980000000000      1.404590000000000
C      -2.647120000000000      1.543170000000000      0.287740000000000
C      -2.078070000000000      0.570340000000000     -0.514040000000000
C      -2.203870000000000     -0.609870000000000      0.104400000000000
N      -2.905630000000000     -0.466790000000000      1.318310000000000
C      -1.682010000000000     -1.937030000000000     -0.380730000000000
N      -0.211400000000000     -1.999210000000000     -0.305800000000000
C       0.400190000000000     -2.730060000000000      0.831380000000000
H      -2.681180000000000      2.607980000000000      0.095590000000000
H      -3.638950000000000      1.394970000000000      2.235790000000000
H      -1.597290000000000      0.749530000000000     -1.463550000000000
H      -1.994470000000000     -2.082140000000000     -1.437080000000000
H      -2.152340000000000     -2.737540000000000      0.211700000000000
C       0.017020000000000     -4.221920000000000      0.790180000000000
C       1.931470000000000     -2.628770000000000      0.680140000000000
C       0.010590000000000     -2.114540000000000      2.192490000000000
H       0.253250000000000     -4.648520000000000     -0.207600000000000
H       0.581540000000000     -4.788600000000000      1.561550000000000
H      -1.056310000000000     -4.382230000000000      1.002220000000000
H       2.263770000000000     -1.572820000000000      0.751090000000000
H       2.455470000000000     -3.197700000000000      1.479720000000000
H       2.256490000000000     -3.029010000000000     -0.304270000000000
H       0.383140000000000     -1.071660000000000      2.278850000000000
H      -1.086930000000000     -2.110320000000000      2.334180000000000
H       0.452160000000000     -2.704140000000000      3.025780000000000
Na    -16.926140000000000     -1.947860000000000      5.860240000000000
C     -14.644810000000000     -3.533230000000000      4.118890000000000
C     -13.692690000000001     -2.527070000000000      5.959080000000000
O     -14.530740000000000     -2.326040000000000      4.841210000000000
C     -15.538100000000000     -3.307920000000000      2.907500000000000
C     -13.586080000000001     -1.226410000000000      6.742410000000000
H     -13.650169999999999     -3.867360000000000      3.748340000000000
H     -15.113960000000001     -4.325830000000000      4.745160000000000
H     -14.119410000000000     -3.298560000000000      6.640060000000000
H     -12.666180000000001     -2.815390000000000      5.636330000000000
H     -14.590960000000001     -0.907600000000000      7.092570000000000
H     -12.928580000000000     -1.372800000000000      7.625490000000000
H     -13.154370000000000     -0.428440000000000      6.101610000000000
H     -15.099720000000000     -2.528310000000000      2.248860000000000
H     -15.633620000000001     -4.252470000000000      2.330990000000000
H     -16.548919999999999     -2.982460000000000      3.233230000000000
Na    -13.088469999999999     -0.781420000000000      3.266180000000000
Mg     -7.011410000000000     -3.488930000000000      3.625170000000000
H      -3.964000000000000     -3.862490000000000      3.285970000000000
C      -4.702130000000000     -5.771200000000000      2.515630000000000
C      -4.740450000000000     -4.623520000000000      3.507620000000000
C      -3.358920000000000     -6.488360000000000      2.613440000000000
H      -5.530430000000000     -6.476980000000000      2.743990000000000
H      -4.852530000000000     -5.367020000000000      1.490570000000000
H      -2.541900000000000     -5.767650000000000      2.395940000000000
H      -3.225960000000000     -6.880910000000000      3.645260000000000
C      -3.277110000000000     -7.644440000000000      1.627660000000000
H      -4.658210000000000     -4.987140000000000      4.553370000000000
H      -4.074360000000000     -8.388010000000000      1.840740000000000
H      -3.389470000000000     -7.270850000000000      0.587690000000000
H      -2.288200000000000     -8.137879999999999      1.728100000000000
C      -6.901930000000000     -0.502750000000000      4.680050000000000
C      -7.850860000000000      0.507650000000000      4.695200000000000
C      -8.994719999999999     -0.008920000000000      4.105700000000000
C      -8.694100000000001     -1.301740000000000      3.743160000000000
N      -7.431190000000000     -1.589520000000000      4.105210000000000
C      -9.592370000000001     -2.309990000000000      3.053320000000000
N      -8.817150000000000     -3.516200000000000      2.693980000000000
C      -9.442869999999999     -4.648860000000000      1.990050000000000
H      -7.725910000000000      1.504410000000000      5.092940000000000
H      -5.892310000000000     -0.440240000000000      5.070440000000000
H      -9.936080000000000      0.502910000000000      3.950380000000000
H      -9.996370000000001     -1.843970000000000      2.134020000000000
H     -10.418040000000000     -2.562500000000000      3.750580000000000
C      -9.892420000000000     -4.203970000000000      0.585390000000000
C      -8.401389999999999     -5.771950000000000      1.835540000000000
C     -10.641670000000000     -5.190350000000000      2.787840000000000
H      -9.022050000000000     -3.821700000000000      0.007890000000000
H     -10.338720000000000     -5.054140000000000      0.026890000000000
H     -10.654809999999999     -3.400990000000000      0.641660000000000
H      -8.056039999999999     -6.128060000000000      2.829550000000000
H      -8.837199999999999     -6.638370000000000      1.289590000000000
H      -7.518070000000000     -5.414270000000000      1.264100000000000
H     -10.318140000000000     -5.507420000000000      3.802600000000000
H     -11.429930000000001     -4.418160000000000      2.889840000000000
H     -11.092070000000000     -6.064140000000000      2.269740000000000
