110

Mg     -0.672850000000000      0.458340000000000     -0.045450000000000
C       3.027480000000000     -0.202230000000000     -0.103240000000000
C       2.512790000000000      0.844810000000000      1.886150000000000
O       2.249020000000000      0.814410000000000      0.497810000000000
C       3.092820000000000      0.024580000000000     -1.605990000000000
C       1.612820000000000      1.873910000000000      2.557240000000000
H       4.077300000000000     -0.196490000000000      0.265820000000000
H       2.574840000000000     -1.196950000000000      0.088810000000000
H       2.322920000000000     -0.144230000000000      2.353380000000000
H       3.566190000000000      1.140380000000000      2.076330000000000
H       0.545080000000000      1.607090000000000      2.423200000000000
H       1.833760000000000      1.911560000000000      3.644990000000000
H       1.792760000000000      2.877560000000000      2.119050000000000
H       3.540420000000000      1.014710000000000     -1.826320000000000
H       3.699420000000000     -0.773580000000000     -2.081940000000000
H       2.087690000000000     -0.002410000000000     -2.049690000000000
H      -0.319410000000000      3.502070000000000      0.829290000000000
C      -2.396990000000000      2.764730000000000      0.774260000000000
C      -0.997670000000000      2.907350000000000      0.187180000000000
C      -2.368890000000000      2.108320000000000      2.161880000000000
H      -2.838530000000000      3.779210000000000      0.843250000000000
H      -3.017150000000000      2.141970000000000      0.091350000000000
H      -1.983770000000000      1.067030000000000      2.088600000000000
H      -1.702260000000000      2.686240000000000      2.836750000000000
C      -3.767110000000000      2.079080000000000      2.776020000000000
H      -1.028800000000000      3.306010000000000     -0.847330000000000
H      -4.157520000000000      3.114760000000000      2.874250000000000
H      -4.461210000000000      1.487600000000000      2.141960000000000
H      -3.728400000000000      1.620800000000000      3.787110000000000
C       0.056860000000000     -1.329080000000000      2.460400000000000
C       0.464780000000000     -2.648090000000000      2.544570000000000
C       0.482220000000000     -3.145420000000000      1.249880000000000
C       0.102790000000000     -2.107330000000000      0.430910000000000
N      -0.139630000000000     -1.018360000000000      1.172650000000000
C      -0.069760000000000     -2.116120000000000     -1.077790000000000
N      -0.175950000000000     -0.736380000000000     -1.606710000000000
C      -0.732820000000000     -0.520800000000000     -2.957390000000000
H       0.719920000000000     -3.183590000000000      3.446110000000000
H      -0.067620000000000     -0.640980000000000      3.289270000000000
H       0.752350000000000     -4.144590000000000      0.938090000000000
H       0.809430000000000     -2.602370000000000     -1.546340000000000
H      -0.984010000000000     -2.703880000000000     -1.289240000000000
C      -2.250500000000000     -0.775330000000000     -2.976780000000000
C      -0.482240000000000      0.946010000000000     -3.364040000000000
C      -0.022000000000000     -1.436200000000000     -3.974090000000000
H      -2.770840000000000     -0.080320000000000     -2.282980000000000
H      -2.652020000000000     -0.612140000000000     -4.001070000000000
H      -2.493980000000000     -1.815360000000000     -2.685000000000000
H       0.602220000000000      1.182760000000000     -3.378810000000000
H      -0.886210000000000      1.148030000000000     -4.380890000000000
H      -0.977370000000000      1.640660000000000     -2.653950000000000
H       1.075420000000000     -1.259050000000000     -3.947460000000000
H      -0.209370000000000     -2.505290000000000     -3.743600000000000
H      -0.384180000000000     -1.240580000000000     -5.005320000000000
Na    -15.113000000000000     -0.829220000000000      8.110820000000000
C     -12.831569999999999     -2.414610000000000      6.369440000000000
C     -11.879440000000001     -1.408450000000000      8.209619999999999
O     -12.717499999999999     -1.207430000000000      7.091760000000000
C     -13.724860000000000     -2.189290000000000      5.158060000000000
C     -11.772850000000000     -0.107790000000000      8.992940000000001
H     -11.836930000000001     -2.748750000000000      5.998880000000000
H     -13.300720000000000     -3.207210000000000      6.995710000000000
H     -12.306170000000000     -2.179950000000000      8.890599999999999
H     -10.852940000000000     -1.696780000000000      7.886870000000000
H     -12.777730000000000      0.211010000000000      9.343090000000000
H     -11.115349999999999     -0.254180000000000      9.876030000000000
H     -11.341139999999999      0.690170000000000      8.352140000000000
H     -13.286470000000000     -1.409680000000000      4.499420000000000
H     -13.820390000000000     -3.133840000000000      4.581540000000000
H     -14.735680000000000     -1.863830000000000      5.483790000000000
Na    -11.275150000000000      0.337260000000000      5.516660000000000
Mg     -5.197960000000000     -2.369890000000000      5.875070000000000
H      -2.151130000000000     -2.744500000000000      5.535990000000000
C      -2.889600000000000     -4.652920000000000      4.765480000000000
C      -2.927690000000000     -3.505370000000000      5.757600000000000
C      -1.547240000000000     -5.371210000000000      4.864140000000000
H      -3.718220000000000     -5.358320000000000      4.993470000000000
H      -3.038930000000000     -4.248330000000000      3.740370000000000
H      -0.730300000000000     -4.651440000000000      4.648260000000000
H      -1.414580000000000     -5.763980000000000      5.895820000000000
C      -1.464440000000000     -6.526040000000000      3.877260000000000
H      -2.845420000000000     -3.868950000000000      6.803390000000000
H      -2.261620000000000     -7.269790000000000      4.089610000000000
H      -1.575960000000000     -6.151320000000000      2.837520000000000
H      -0.475450000000000     -7.019290000000000      3.978000000000000
C      -5.087350000000000      0.617840000000000      6.930090000000000
C      -6.037080000000000      1.625930000000000      6.944070000000000
C      -7.182140000000000      1.110840000000000      6.354810000000000
C      -6.877990000000000     -0.182930000000000      5.993290000000000
N      -5.619830000000000     -0.471240000000000      6.353410000000000
C      -7.779750000000000     -1.191020000000000      5.302990000000000
N      -7.003510000000000     -2.397320000000000      4.944330000000000
C      -7.629710000000000     -3.530150000000000      4.240350000000000
H      -5.912280000000000      2.623620000000000      7.342340000000000
H      -4.079130000000000      0.678690000000000      7.319740000000000
H      -8.122290000000000      1.621860000000000      6.199960000000000
H      -8.182990000000000     -0.725250000000000      4.383970000000000
H      -8.604430000000001     -1.443340000000000      6.000680000000000
C      -8.079060000000000     -3.085260000000000      2.835780000000000
C      -6.588010000000000     -4.653150000000000      4.086010000000000
C      -8.828310000000000     -4.071560000000000      5.038300000000000
H      -7.208720000000000     -2.702920000000000      2.258300000000000
H      -8.525350000000000     -3.935480000000000      2.277300000000000
H      -8.841550000000000     -2.282340000000000      2.892030000000000
H      -6.242740000000000     -5.009210000000000      5.080040000000000
H      -7.023860000000000     -5.519630000000000      3.540100000000000
H      -5.704750000000000     -4.295500000000000      3.514540000000000
H      -8.504810000000001     -4.388650000000000      6.053060000000000
H      -9.616619999999999     -3.299410000000000      5.140330000000000
H      -9.278750000000000     -4.945400000000000      4.520250000000000
