170

Mg     -0.095930000000000      0.823440000000000     -0.534640000000000
C      -1.691190000000000     -1.390620000000000      1.316290000000000
C      -1.225880000000000     -2.307360000000000     -0.845320000000000
O      -1.310830000000000     -1.159190000000000     -0.028950000000000
C      -0.917630000000000     -2.497290000000000      2.036950000000000
C      -2.585500000000000     -2.937590000000000     -1.105020000000000
H      -1.464650000000000     -0.452850000000000      1.860570000000000
H      -2.786650000000000     -1.541460000000000      1.396420000000000
H      -0.823670000000000     -1.974580000000000     -1.821370000000000
H      -0.481290000000000     -3.036910000000000     -0.470450000000000
H      -2.470150000000000     -3.753740000000000     -1.847980000000000
H      -3.287350000000000     -2.177470000000000     -1.506290000000000
H      -2.996710000000000     -3.359680000000000     -0.167390000000000
H       0.169390000000000     -2.341190000000000      1.938340000000000
H      -1.189740000000000     -3.494020000000000      1.635310000000000
H      -1.165000000000000     -2.476600000000000      3.117240000000000
H      -2.198490000000000      1.737090000000000     -1.899880000000000
C      -0.607260000000000      1.708610000000000     -3.409000000000000
C      -1.121980000000000      1.987070000000000     -1.986460000000000
C      -0.662920000000000      0.233630000000000     -3.854220000000000
H      -1.196060000000000      2.324390000000000     -4.120200000000000
H       0.455740000000000      2.027230000000000     -3.463850000000000
H      -0.268420000000000      0.167960000000000     -4.893420000000000
H       0.000430000000000     -0.378100000000000     -3.210210000000000
C      -2.072230000000000     -0.358310000000000     -3.851850000000000
H      -0.970980000000000      3.052830000000000     -1.728290000000000
H      -2.490890000000000     -0.360980000000000     -2.827200000000000
H      -2.741200000000000      0.222320000000000     -4.520090000000000
H      -2.036560000000000     -1.410110000000000     -4.211880000000000
C       2.272270000000000     -2.304860000000000     -0.892160000000000
C       2.419420000000000     -1.167240000000000     -1.649190000000000
C       2.315110000000000     -0.080670000000000     -0.797400000000000
C       2.084560000000000     -0.547040000000000      0.437810000000000
N       2.074850000000000     -1.950790000000000      0.453280000000000
C       1.820160000000000      0.301460000000000      1.656520000000000
N       0.623730000000000      1.116150000000000      1.420020000000000
C       0.245150000000000      2.145980000000000      2.419170000000000
H       2.565810000000000     -1.139620000000000     -2.722030000000000
H       2.286660000000000     -3.319510000000000     -1.260260000000000
H       2.356110000000000      0.959560000000000     -1.087320000000000
H       2.708180000000000      0.930070000000000      1.853070000000000
H       1.643240000000000     -0.376850000000000      2.518800000000000
C       1.293820000000000      3.274730000000000      2.461580000000000
C      -1.111620000000000      2.747160000000000      2.018530000000000
C       0.106750000000000      1.521580000000000      3.828670000000000
H       1.387820000000000      3.755650000000000      1.465670000000000
H       1.002180000000000      4.049660000000000      3.204430000000000
H       2.289000000000000      2.894680000000000      2.768420000000000
H      -1.903160000000000      1.968520000000000      2.012360000000000
H      -1.415720000000000      3.542510000000000      2.736060000000000
H      -1.052610000000000      3.197060000000000      1.005290000000000
H      -0.646100000000000      0.704830000000000      3.828550000000000
H       1.072570000000000      1.107490000000000      4.184010000000000
H      -0.216680000000000      2.285500000000000      4.569640000000000
Na     -0.491740000000000     -0.799430000000000     10.160819999999999
C       0.968590000000000      0.392910000000000      7.580330000000000
C       0.467760000000000     -1.831200000000000      7.030470000000000
O       0.833630000000000     -0.931040000000000      8.058999999999999
C      -0.360610000000000      1.136630000000000      7.660070000000000
C       1.700360000000000     -2.423940000000000      6.352580000000000
H       1.701100000000000      0.916740000000000      8.230140000000000
H       1.386520000000000      0.436290000000000      6.550330000000000
H      -0.108980000000000     -2.658610000000000      7.496270000000000
H      -0.206690000000000     -1.369690000000000      6.275140000000000
H       2.331340000000000     -2.958640000000000      7.092660000000000
H       1.380030000000000     -3.147680000000000      5.574330000000000
H       2.303560000000000     -1.627530000000000      5.870140000000000
H      -0.729380000000000      1.149520000000000      8.707100000000001
H      -0.221250000000000      2.182630000000000      7.316870000000000
H      -1.120250000000000      0.650290000000000      7.014820000000000
C      -3.339600000000000     -1.458800000000000      8.483540000000000
C      -3.682090000000000     -1.513160000000000     10.842630000000000
O      -2.753410000000000     -1.462640000000000      9.773360000000000
C      -4.209490000000000     -0.232540000000000      8.204340000000000
C      -4.511750000000000     -2.796660000000000     10.871740000000001
H      -2.500180000000000     -1.426450000000000      7.757580000000000
H      -3.877320000000000     -2.405600000000000      8.272140000000000
H      -3.084510000000000     -1.496310000000000     11.779470000000000
H      -4.319230000000000     -0.605650000000000     10.882529999999999
H      -3.842710000000000     -3.682570000000000     10.853650000000000
H      -5.117280000000000     -2.820080000000000     11.801880000000001
H      -5.211550000000000     -2.837850000000000     10.012790000000001
H      -3.633060000000000      0.696960000000000      8.395460000000000
H      -4.527980000000000     -0.246380000000000      7.140770000000000
H      -5.125240000000000     -0.241560000000000      8.829179999999999
Na      2.719250000000000     -1.920200000000000      9.164190000000000
C       1.614840000000000     -1.342290000000000     12.257080000000000
C       0.995700000000000     -3.458720000000000     11.473420000000001
O       1.303350000000000     -2.124800000000000     11.122930000000000
C       2.280900000000000     -0.053600000000000     11.791660000000000
C      -0.432980000000000     -3.595170000000000     11.995279999999999
H       0.685190000000000     -1.070900000000000     12.801869999999999
H       2.328730000000000     -1.856250000000000     12.939340000000000
H       1.077530000000000     -4.068120000000000     10.547890000000001
H       1.732110000000000     -3.887790000000000     12.188450000000000
H      -1.152520000000000     -3.215940000000000     11.240890000000000
H      -0.653320000000000     -4.665040000000000     12.193070000000001
H      -0.562540000000000     -3.031500000000000     12.940500000000000
H       1.607910000000000      0.500030000000000     11.102359999999999
H       2.508860000000000      0.591510000000000     12.666010000000000
H       3.228320000000000     -0.282990000000000     11.260630000000001
C       5.794180000000000     -2.383110000000000     10.316800000000001
C       5.771250000000000     -0.533490000000000      8.924659999999999
O       4.985540000000000     -1.502980000000000      9.574299999999999
C       4.891040000000000     -3.421920000000000     10.968109999999999
C       4.838560000000000      0.400890000000000      8.165740000000000
H       6.513070000000000     -2.917740000000000      9.655620000000001
H       6.330760000000000     -1.836990000000000     11.124779999999999
H       6.341760000000000      0.074140000000000      9.662760000000000
H       6.458370000000000     -1.009390000000000      8.189190000000000
H       4.138440000000000      0.892520000000000      8.874670000000000
H       5.424790000000000      1.181950000000000      7.638640000000000
H       4.248170000000000     -0.173400000000000      7.419140000000000
H       4.336420000000000     -3.988160000000000     10.188929999999999
H       5.494780000000000     -4.131930000000000     11.570300000000000
H       4.158440000000000     -2.920160000000000     11.633680000000000
Mg     -1.188400000000000     -0.904740000000000     19.036700000000000
C      -2.516880000000000     -2.960590000000000     16.936460000000000
C      -2.668740000000000     -0.711810000000000     16.164190000000001
O      -2.768900000000000     -1.604230000000000     17.256010000000000
C      -1.114720000000000     -3.224880000000000     16.386060000000001
C      -3.827080000000000     -0.865020000000000     15.187840000000000
H      -2.589320000000000     -3.518350000000000     17.890689999999999
H      -3.307880000000000     -3.386050000000000     16.287210000000002
H      -2.721740000000000      0.314400000000000     16.588190000000001
H      -1.684810000000000     -0.761430000000000     15.655500000000000
H      -4.789530000000000     -0.782810000000000     15.735550000000000
H      -3.772340000000000     -0.062010000000000     14.423959999999999
H      -3.773580000000000     -1.843690000000000     14.670240000000000
H      -0.350680000000000     -2.747820000000000     17.030040000000000
H      -0.931830000000000     -4.319360000000000     16.359059999999999
H      -1.015580000000000     -2.839090000000000     15.353510000000000
H       1.348500000000000     -0.529350000000000     18.423890000000000
C       0.456580000000000      1.453730000000000     18.521409999999999
C       0.438320000000000      0.003390000000000     18.080140000000000
C       0.438820000000000      1.545550000000000     20.050889999999999
H       1.369920000000000      1.927140000000000     18.106570000000001
H      -0.442260000000000      1.972380000000000     18.119890000000002
H      -0.523760000000000      1.145460000000000     20.436029999999999
H       1.266020000000000      0.943090000000000     20.483029999999999
C       0.603770000000000      2.988630000000000     20.509699999999999
H       0.346660000000000     -0.077810000000000     16.977810000000002
H       1.587420000000000      3.375910000000000     20.167850000000001
H      -0.205880000000000      3.626850000000000     20.096979999999999
H       0.570150000000000      3.034310000000000     21.618440000000000
C      -2.937420000000000      1.007430000000000     21.964900000000000
C      -3.393990000000000      1.034420000000000     20.666750000000000
C      -3.468030000000000     -0.275520000000000     20.227900000000002
C      -3.055820000000000     -1.072630000000000     21.218830000000001
N      -2.725210000000000     -0.321360000000000     22.364590000000000
C      -2.955780000000000     -2.574290000000000     21.165710000000001
N      -1.881480000000000     -3.014740000000000     20.257520000000000
C      -0.598350000000000     -3.437150000000000     20.873410000000000
H      -3.636310000000000      1.924900000000000     20.100880000000000
H      -2.759870000000000      1.871020000000000     22.589600000000001
H      -3.796600000000000     -0.591600000000000     19.250180000000000
H      -3.923790000000000     -2.981000000000000     20.803280000000001
H      -2.807660000000000     -2.953800000000000     22.190130000000000
C      -0.794380000000000     -4.699720000000000     21.738309999999998
C       0.376820000000000     -3.795590000000000     19.735430000000001
C       0.039100000000000     -2.304780000000000     21.706160000000001
H      -1.271460000000000     -5.503160000000000     21.137350000000001
H       0.185080000000000     -5.071000000000000     22.109359999999999
H      -1.419010000000000     -4.508900000000000     22.631409999999999
H       0.587120000000000     -2.908170000000000     19.105020000000000
H       1.349080000000000     -4.154140000000000     20.140770000000000
H      -0.046560000000000     -4.595150000000000     19.089900000000000
H       0.245680000000000     -1.417540000000000     21.070609999999999
H      -0.618120000000000     -1.995890000000000     22.541760000000000
H       1.003400000000000     -2.642180000000000     22.145219999999998
