125

Mg     -0.293430000000000      0.401290000000000      0.667450000000000
C       0.967590000000000     -2.471730000000000     -1.401860000000000
C      -1.337340000000000     -2.549660000000000     -1.388360000000000
O      -0.187780000000000     -2.305890000000000     -0.602830000000000
C       2.187130000000000     -2.641450000000000     -0.508630000000000
C      -2.589120000000000     -2.284640000000000     -0.562380000000000
H       0.907990000000000     -3.383780000000000     -2.036620000000000
H       1.118810000000000     -1.582480000000000     -2.048040000000000
H      -1.361170000000000     -1.890920000000000     -2.281680000000000
H      -1.366680000000000     -3.609740000000000     -1.717780000000000
H      -2.624370000000000     -1.226530000000000     -0.233130000000000
H      -3.492210000000000     -2.494760000000000     -1.173690000000000
H      -2.599290000000000     -2.942220000000000      0.331580000000000
H       2.061150000000000     -3.524140000000000      0.150330000000000
H       3.096580000000000     -2.767680000000000     -1.131950000000000
H       2.331670000000000     -1.757390000000000      0.128170000000000
H      -2.280330000000000     -1.424490000000000      2.360010000000000
C      -2.432560000000000      0.743210000000000      2.735450000000000
C      -1.636230000000000     -0.539880000000000      2.529630000000000
C      -3.342200000000000      1.046660000000000      1.536830000000000
H      -3.042470000000000      0.618590000000000      3.652730000000000
H      -1.726770000000000      1.591900000000000      2.878510000000000
H      -2.731320000000000      1.234300000000000      0.625990000000000
H      -4.010150000000000      0.180400000000000      1.343280000000000
C      -4.211260000000000      2.271220000000000      1.813850000000000
H      -0.920690000000000     -0.712670000000000      3.359100000000000
H      -4.844710000000000      2.087960000000000      2.707500000000000
H      -3.580790000000000      3.168410000000000      1.991360000000000
H      -4.877110000000000      2.467160000000000      0.946970000000000
C      -1.506610000000000      0.663400000000000     -2.242250000000000
C      -0.906790000000000      0.971730000000000     -3.450360000000000
C       0.434650000000000      1.203270000000000     -3.182980000000000
C       0.599540000000000      1.012190000000000     -1.830760000000000
N      -0.575200000000000      0.677450000000000     -1.280210000000000
C       1.866360000000000      1.166960000000000     -1.007900000000000
N       1.700130000000000      0.570310000000000      0.337880000000000
C       2.637160000000000      0.945100000000000      1.416120000000000
H      -1.392590000000000      1.023110000000000     -4.413770000000000
H      -2.553720000000000      0.427930000000000     -2.086400000000000
H       1.205080000000000      1.469760000000000     -3.892950000000000
H       2.702790000000000      0.648730000000000     -1.518600000000000
H       2.075070000000000      2.252800000000000     -0.947700000000000
C       2.384620000000000      2.386690000000000      1.892690000000000
C       2.416840000000000     -0.005170000000000      2.610990000000000
C       4.091650000000000      0.787090000000000      0.929740000000000
H       1.352850000000000      2.489780000000000      2.292700000000000
H       3.100370000000000      2.652830000000000      2.701420000000000
H       2.521260000000000      3.117440000000000      1.072030000000000
H       2.598210000000000     -1.062700000000000      2.326050000000000
H       3.108810000000000      0.243920000000000      3.445940000000000
H       1.377260000000000      0.076370000000000      2.991150000000000
H       4.266000000000000     -0.251890000000000      0.573810000000000
H       4.308010000000000      1.483730000000000      0.093600000000000
H       4.809760000000000      1.002760000000000      1.748600000000000
Na      3.943440000000000      2.287980000000000      8.746060000000000
C       2.236600000000000      5.050430000000000      9.220490000000000
C       1.662980000000000      4.083590000000000      7.209370000000000
O       2.739480000000000      4.506720000000000      8.018269999999999
C       3.401740000000000      5.517260000000000     10.081830000000000
C       2.208110000000000      3.487550000000000      5.918910000000000
H       1.589030000000000      5.934000000000000      9.016900000000000
H       1.675060000000000      4.280630000000000      9.797280000000001
H       1.066940000000000      3.295190000000000      7.723440000000000
H       1.017930000000000      4.946610000000000      6.934020000000000
H       2.857150000000000      2.614940000000000      6.144150000000000
H       1.366980000000000      3.152410000000000      5.275240000000000
H       2.800110000000000      4.248300000000000      5.367120000000000
H       3.984780000000000      6.296700000000000      9.546730000000000
H       3.018730000000000      5.945160000000000     11.032560000000000
H       4.070110000000000      4.661760000000000     10.317130000000001
Na      3.684660000000000      6.603760000000000      6.732090000000000
Mg     -3.504320000000000      7.622500000000000      7.597990000000000
C      -1.882220000000000     11.058630000000001      6.868040000000000
C      -2.382150000000000     10.074430000000000      4.843350000000000
O      -1.876570000000000      9.845260000000000      6.142400000000000
C      -0.964200000000000     10.931080000000000      8.073750000000000
C      -2.486790000000000      8.751110000000001      4.098540000000000
H      -1.497080000000000     11.909710000000000      6.261870000000000
H      -2.909600000000000     11.287879999999999      7.222380000000000
H      -3.394780000000000     10.532700000000000      4.880860000000000
H      -1.694430000000000     10.733110000000000      4.269610000000000
H      -3.173970000000000      8.061529999999999      4.629240000000000
H      -2.879640000000000      8.927040000000000      3.074720000000000
H      -1.485530000000000      8.277699999999999      4.023350000000000
H       0.071320000000000     10.708019999999999      7.744140000000000
H      -0.971680000000000     11.876060000000001      8.655709999999999
H      -1.302120000000000     10.116650000000000      8.733590000000000
H      -1.527520000000000      6.088070000000000      5.429400000000000
C      -3.126890000000000      4.905270000000000      6.347860000000000
C      -1.997810000000000      5.924550000000000      6.419920000000000
C      -4.236620000000000      5.368780000000000      5.396640000000000
H      -2.700760000000000      3.942670000000000      5.996320000000000
H      -3.553750000000000      4.763190000000000      7.365530000000000
H      -4.700860000000000      6.304620000000000      5.778230000000000
H      -3.810360000000000      5.568030000000000      4.390190000000000
C      -5.316590000000000      4.299810000000000      5.260780000000000
H      -1.238440000000000      5.613820000000000      7.164530000000000
H      -4.872370000000000      3.364000000000000      4.860650000000000
H      -5.783970000000000      4.088530000000000      6.245980000000000
H      -6.103030000000000      4.647580000000000      4.558120000000000
C      -5.538360000000000      9.379230000000000      5.919710000000000
C      -6.282020000000000     10.493790000000001      6.264030000000000
C      -5.996210000000000     10.774319999999999      7.592570000000000
C      -5.073940000000000      9.831740000000000      7.994510000000000
N      -4.812380000000000      8.997600000000000      6.981850000000000
C      -4.421910000000000      9.676710000000000      9.359180000000000
N      -3.274290000000000      8.739509999999999      9.284620000000000
C      -2.763520000000000      8.120270000000000     10.522980000000000
H      -6.958510000000000     11.038399999999999      5.619520000000000
H      -5.524980000000000      8.888310000000001      4.954720000000000
H      -6.403750000000000     11.578849999999999      8.188430000000000
H      -4.037830000000000     10.663000000000000      9.690630000000001
H      -5.202210000000000      9.325100000000001     10.062840000000000
C      -3.739570000000000      7.049480000000000     11.038460000000001
C      -1.416030000000000      7.439020000000000     10.205859999999999
C      -2.522580000000000      9.196140000000000     11.601680000000000
H      -3.882890000000000      6.257410000000000     10.272050000000000
H      -3.337350000000000      6.575620000000000     11.960630000000000
H      -4.727490000000000      7.485340000000000     11.285460000000000
H      -0.670810000000000      8.172770000000000      9.833349999999999
H      -0.991760000000000      6.960210000000000     11.115900000000000
H      -1.543320000000000      6.654360000000000      9.430759999999999
H      -1.821190000000000      9.970890000000001     11.221830000000001
H      -3.471890000000000      9.694170000000000     11.888450000000001
H      -2.084150000000000      8.745860000000000     12.517530000000001
