125

Mg     -0.162700000000000     -0.205100000000000     -0.383040000000000
C       3.270620000000000     -0.140790000000000     -1.011400000000000
C       2.308890000000000      2.017210000000000     -0.670970000000000
O       2.176500000000000      0.615720000000000     -0.527520000000000
C       4.560280000000000      0.078670000000000     -0.227370000000000
C       2.376760000000000      2.480000000000000     -2.123910000000000
H       2.988300000000000     -1.208860000000000     -0.888720000000000
H       3.434120000000000      0.003000000000000     -2.096310000000000
H       1.387810000000000      2.463250000000000     -0.246130000000000
H       3.137790000000000      2.422430000000000     -0.056110000000000
H       1.529540000000000      2.055590000000000     -2.701360000000000
H       2.311970000000000      3.587590000000000     -2.155380000000000
H       3.335870000000000      2.178780000000000     -2.588890000000000
H       4.391360000000000     -0.086290000000000      0.855700000000000
H       5.325120000000000     -0.642780000000000     -0.584040000000000
H       4.947630000000000      1.103130000000000     -0.393010000000000
H       0.719010000000000     -2.406400000000000     -2.149950000000000
C       0.632450000000000     -0.793020000000000     -3.637800000000000
C       0.090830000000000     -1.538320000000000     -2.437760000000000
C       0.621450000000000     -1.711440000000000     -4.846980000000000
H       0.005540000000000      0.101130000000000     -3.833660000000000
H       1.665060000000000     -0.455540000000000     -3.423740000000000
H       1.249730000000000     -2.603340000000000     -4.632440000000000
H      -0.422310000000000     -2.040080000000000     -5.043610000000000
C       1.164810000000000     -0.995210000000000     -6.072690000000000
H      -0.976590000000000     -1.814920000000000     -2.561790000000000
H       0.540350000000000     -0.106070000000000     -6.304650000000000
H       2.212390000000000     -0.671270000000000     -5.893550000000000
H       1.142190000000000     -1.690090000000000     -6.936220000000000
C      -1.884750000000000     -0.887320000000000      4.115900000000000
C      -3.126310000000000     -0.469020000000000      3.689660000000000
C      -2.913750000000000      0.543650000000000      2.766770000000000
C      -1.595500000000000      0.683680000000000      2.652800000000000
N      -0.965710000000000     -0.218400000000000      3.524550000000000
C      -0.811660000000000      1.672610000000000      1.811420000000000
N      -0.895230000000000      1.508110000000000      0.348710000000000
C      -2.012610000000000      1.970980000000000     -0.486230000000000
H      -4.079270000000000     -0.854000000000000      4.030560000000000
H      -1.676790000000000     -1.661050000000000      4.840820000000000
H      -3.684100000000000      1.103260000000000      2.266700000000000
H       0.258190000000000      1.514940000000000      2.067860000000000
H      -1.046650000000000      2.707920000000000      2.106140000000000
C      -2.688650000000000      3.200520000000000      0.125130000000000
C      -1.426770000000000      2.366320000000000     -1.856490000000000
C      -3.014930000000000      0.823760000000000     -0.728730000000000
H      -1.929980000000000      3.999570000000000      0.275820000000000
H      -3.483980000000000      3.580690000000000     -0.546240000000000
H      -3.143450000000000      2.953920000000000      1.101750000000000
H      -0.911960000000000      1.502270000000000     -2.322370000000000
H      -2.224940000000000      2.702850000000000     -2.552860000000000
H      -0.681480000000000      3.183000000000000     -1.750560000000000
H      -2.531770000000000     -0.021050000000000     -1.268500000000000
H      -3.421590000000000      0.415540000000000      0.206640000000000
H      -3.866000000000000      1.179110000000000     -1.347940000000000
C      -0.038950000000000     -2.674530000000000      1.580610000000000
C       1.747030000000000     -1.227750000000000      2.113020000000000
O       0.853850000000000     -1.681410000000000      1.115830000000000
C      -1.411330000000000     -2.490090000000000      0.928820000000000
C       2.862900000000000     -2.227000000000000      2.341860000000000
H       0.357790000000000     -3.666940000000000      1.286930000000000
H      -0.184650000000000     -2.654410000000000      2.682030000000000
H       2.188320000000000     -0.271380000000000      1.768950000000000
H       1.249710000000000     -0.979840000000000      3.066420000000000
H       3.384570000000000     -2.433250000000000      1.384730000000000
H       3.582160000000000     -1.807080000000000      3.074680000000000
H       2.438330000000000     -3.167910000000000      2.746230000000000
H      -1.854810000000000     -1.514430000000000      1.197150000000000
H      -1.338470000000000     -2.535800000000000     -0.176170000000000
H      -2.101050000000000     -3.288110000000000      1.272370000000000
Na      0.172840000000000     12.044919999999999      6.758340000000000
C      -0.105260000000000      9.605639999999999      8.935720000000000
C      -1.535380000000000     11.331500000000000      9.468510000000000
O      -0.203020000000000     10.998849999999999      9.141780000000001
C       1.334760000000000      9.251899999999999      8.593070000000001
C      -1.638860000000000     12.836449999999999      9.674740000000000
H      -0.381140000000000      9.047829999999999      9.859680000000001
H      -0.744580000000000      9.287699999999999      8.081250000000001
H      -2.227140000000000     11.054560000000000      8.640510000000001
H      -1.843990000000000     10.836250000000000     10.417210000000001
H      -1.349760000000000     13.371240000000000      8.745080000000000
H      -2.683960000000000     13.108779999999999      9.934369999999999
H      -0.969250000000000     13.156810000000000     10.501060000000001
H       2.009300000000000      9.546310000000000      9.425120000000000
H       1.422980000000000      8.156879999999999      8.428830000000000
H       1.648420000000000      9.780730000000000      7.667850000000000
Na      1.107500000000000     11.407349999999999     11.388140000000000
Mg      0.329050000000000      4.603960000000000      7.952820000000000
H       1.388950000000000      1.906540000000000      6.925630000000000
C       2.531630000000000      2.115000000000000      8.788729999999999
C       1.952220000000000      2.673100000000000      7.495610000000000
C       1.460620000000000      1.672950000000000      9.799429999999999
H       3.200800000000000      1.264830000000000      8.541270000000001
H       3.138600000000000      2.913370000000000      9.268300000000000
H       1.985600000000000      1.280520000000000     10.697580000000000
H       0.847540000000000      2.544570000000000     10.112629999999999
C       0.530570000000000      0.582840000000000      9.269030000000001
H       2.750490000000000      3.098290000000000      6.853700000000000
H      -0.086490000000000      0.967090000000000      8.430389999999999
H       1.116620000000000     -0.296190000000000      8.928620000000000
H      -0.159540000000000      0.262570000000000     10.078200000000001
C      -0.082850000000000      5.221690000000000     11.041010000000000
C      -1.079130000000000      5.906270000000000     11.717029999999999
C      -1.996860000000000      6.327670000000000     10.766710000000000
C      -1.532130000000000      5.864770000000000      9.555600000000000
N      -0.374220000000000      5.214280000000000      9.730130000000001
C      -2.167850000000000      6.037640000000000      8.188770000000000
N      -1.475560000000000      5.177590000000000      7.205190000000000
C      -1.900230000000000      5.146390000000000      5.794310000000000
H      -1.130600000000000      6.083100000000000     12.782769999999999
H       0.794850000000000      4.765390000000000     11.480210000000000
H      -2.902050000000000      6.892880000000000     10.939900000000000
H      -2.090720000000000      7.108740000000000      7.912030000000000
H      -3.229590000000000      5.734330000000000      8.255470000000001
C      -1.860410000000000      6.554110000000000      5.172580000000000
C      -0.941320000000000      4.229410000000000      5.013850000000000
C      -3.322220000000000      4.560530000000000      5.695190000000000
H      -0.836540000000000      6.979660000000000      5.242380000000000
H      -2.154960000000000      6.513030000000000      4.101400000000000
H      -2.567270000000000      7.237860000000000      5.685770000000000
H      -0.941150000000000      3.201880000000000      5.438010000000000
H      -1.251320000000000      4.165200000000000      3.948490000000000
H       0.097390000000000      4.621850000000000      5.049140000000000
H      -3.347930000000000      3.540760000000000      6.138700000000000
H      -4.057680000000000      5.193390000000000      6.231960000000000
H      -3.648250000000000      4.490540000000000      4.635520000000000
