125

Mg     -0.162650000000000     -0.205210000000000     -0.383170000000000
C       3.270630000000000     -0.140730000000000     -1.011350000000000
C       2.308940000000000      2.017290000000000     -0.670890000000000
O       2.176520000000000      0.615800000000000     -0.527450000000000
C       4.560290000000000      0.078730000000000     -0.227330000000000
C       2.376790000000000      2.480050000000000     -2.123840000000000
H       2.988300000000000     -1.208800000000000     -0.888680000000000
H       3.434110000000000      0.003050000000000     -2.096260000000000
H       1.387880000000000      2.463340000000000     -0.246040000000000
H       3.137840000000000      2.422490000000000     -0.056010000000000
H       1.529570000000000      2.055630000000000     -2.701280000000000
H       2.312000000000000      3.587640000000000     -2.155340000000000
H       3.335890000000000      2.178820000000000     -2.588830000000000
H       4.391380000000000     -0.086230000000000      0.855750000000000
H       5.325130000000000     -0.642730000000000     -0.584000000000000
H       4.947650000000000      1.103190000000000     -0.392970000000000
H       0.719010000000000     -2.406410000000000     -2.149960000000000
C       0.632450000000000     -0.793020000000000     -3.637810000000000
C       0.090830000000000     -1.538350000000000     -2.437790000000000
C       0.621460000000000     -1.711450000000000     -4.846990000000000
H       0.005540000000000      0.101120000000000     -3.833670000000000
H       1.665060000000000     -0.455550000000000     -3.423740000000000
H       1.249740000000000     -2.603340000000000     -4.632440000000000
H      -0.422300000000000     -2.040080000000000     -5.043620000000000
C       1.164810000000000     -0.995210000000000     -6.072700000000000
H      -0.976590000000000     -1.814930000000000     -2.561810000000000
H       0.540350000000000     -0.106070000000000     -6.304650000000000
H       2.212390000000000     -0.671270000000000     -5.893550000000000
H       1.142190000000000     -1.690090000000000     -6.936220000000000
C      -1.884620000000000     -0.887540000000000      4.115630000000000
C      -3.126110000000000     -0.469330000000000      3.689220000000000
C      -2.913440000000000      0.543350000000000      2.766350000000000
C      -1.595130000000000      0.683510000000000      2.652590000000000
N      -0.965500000000000     -0.218550000000000      3.524440000000000
C      -0.810960000000000      1.672350000000000      1.811230000000000
N      -0.894850000000000      1.508060000000000      0.348520000000000
C      -2.012370000000000      1.970940000000000     -0.486300000000000
H      -4.079100000000000     -0.854320000000000      4.030090000000000
H      -1.676770000000000     -1.661250000000000      4.840580000000000
H      -3.683830000000000      1.102810000000000      2.266190000000000
H       0.258810000000000      1.514400000000000      2.067630000000000
H      -1.044730000000000      2.707790000000000      2.105810000000000
C      -2.688360000000000      3.200470000000000      0.125090000000000
C      -1.426660000000000      2.366330000000000     -1.856570000000000
C      -3.014770000000000      0.823750000000000     -0.728800000000000
H      -1.929730000000000      3.999550000000000      0.275830000000000
H      -3.483740000000000      3.580640000000000     -0.546260000000000
H      -3.143120000000000      2.953770000000000      1.101660000000000
H      -0.911880000000000      1.502270000000000     -2.322470000000000
H      -2.224890000000000      2.702850000000000     -2.552890000000000
H      -0.681390000000000      3.183020000000000     -1.750650000000000
H      -2.531670000000000     -0.021070000000000     -1.268590000000000
H      -3.421480000000000      0.415480000000000      0.206500000000000
H      -3.865860000000000      1.179130000000000     -1.347970000000000
C      -0.038920000000000     -2.674550000000000      1.580540000000000
C       1.747070000000000     -1.227750000000000      2.112910000000000
O       0.853880000000000     -1.681430000000000      1.115750000000000
C      -1.411310000000000     -2.490130000000000      0.928760000000000
C       2.862940000000000     -2.227000000000000      2.341760000000000
H       0.357820000000000     -3.666960000000000      1.286880000000000
H      -0.184610000000000     -2.654420000000000      2.681960000000000
H       2.188350000000000     -0.271360000000000      1.768870000000000
H       1.249780000000000     -0.979830000000000      3.066310000000000
H       3.384610000000000     -2.433260000000000      1.384640000000000
H       3.582200000000000     -1.807080000000000      3.074570000000000
H       2.438360000000000     -3.167900000000000      2.746150000000000
H      -1.854800000000000     -1.514470000000000      1.197060000000000
H      -1.338460000000000     -2.535850000000000     -0.176220000000000
H      -2.101030000000000     -3.288140000000000      1.272340000000000
Na      5.987970000000000      6.839820000000000     13.626920000000000
C       3.283490000000000      7.616330000000000     11.938380000000000
C       4.171670000000000      9.487590000000001     12.946940000000000
O       3.759320000000000      8.153560000000001     13.154109999999999
C       2.831850000000000      6.181540000000000     12.169910000000000
C       4.698040000000000     10.057470000000000     14.257009999999999
H       2.405600000000000      8.192720000000000     11.566830000000000
H       4.091660000000000      7.597560000000000     11.172580000000000
H       4.997160000000000      9.535570000000000     12.200570000000001
H       3.313960000000000     10.119270000000000     12.621589999999999
H       5.565290000000000      9.461589999999999     14.612920000000001
H       5.023720000000000     11.108510000000001     14.105219999999999
H       3.901560000000000     10.037340000000000     15.030980000000000
H       2.017540000000000      6.154000000000000     12.924980000000000
H       2.455160000000000      5.748880000000000     11.218740000000000
H       3.683130000000000      5.566710000000000     12.532400000000001
Na      1.597550000000000      8.395180000000000     14.636930000000000
Mg      1.737900000000000      5.490420000000000      7.548780000000000
H       0.975410000000000      3.410210000000000      5.413580000000000
C      -0.895970000000000      3.532840000000000      6.554470000000000
C       0.621970000000000      3.451030000000000      6.463860000000000
C      -1.475650000000000      4.828180000000000      5.962650000000000
H      -1.331370000000000      2.647840000000000      6.044990000000000
H      -1.179990000000000      3.497310000000000      7.628660000000000
H      -2.580990000000000      4.785470000000000      6.074750000000000
H      -1.105380000000000      5.707860000000000      6.530630000000000
C      -1.148820000000000      5.025230000000000      4.483850000000000
H       1.006130000000000      2.570260000000000      7.017690000000000
H      -0.058110000000000      5.169220000000000      4.337310000000000
H      -1.494000000000000      4.151880000000000      3.895610000000000
H      -1.664480000000000      5.934760000000000      4.109640000000000
C      -0.325070000000000      7.625390000000000      8.677730000000000
C      -0.176830000000000      8.962190000000000      9.008279999999999
C       1.140170000000000      9.302070000000001      8.738390000000001
C       1.732680000000000      8.164720000000001      8.236050000000001
N       0.847350000000000      7.159600000000000      8.217460000000001
C       3.165990000000000      7.992520000000000      7.769090000000000
N       3.312280000000000      6.692990000000000      7.079020000000000
C       4.608460000000000      6.276040000000000      6.514950000000000
H      -0.940830000000000      9.616569999999999      9.405530000000001
H      -1.228190000000000      7.036450000000000      8.772290000000000
H       1.606650000000000     10.267170000000000      8.879260000000000
H       3.822510000000000      8.050879999999999      8.660880000000001
H       3.404730000000000      8.809990000000001      7.063030000000000
C       5.704360000000000      6.264340000000000      7.595770000000000
C       4.458660000000000      4.855130000000000      5.940640000000000
C       5.002330000000000      7.226590000000000      5.367580000000000
H       5.423100000000000      5.580660000000000      8.425060000000000
H       6.669730000000000      5.920780000000000      7.164830000000000
H       5.867890000000000      7.280290000000000      8.010100000000000
H       3.668110000000000      4.826010000000000      5.159820000000000
H       5.413460000000000      4.516740000000000      5.479470000000000
H       4.185110000000000      4.133660000000000      6.740010000000000
H       4.212490000000000      7.229320000000000      4.584370000000000
H       5.136360000000000      8.265380000000000      5.731510000000000
H       5.958600000000000      6.907960000000000      4.900800000000000
