170

Mg     -0.369030000000000     -0.132940000000000      0.197390000000000
C       0.536160000000000      2.973520000000000      1.523080000000000
C       2.120100000000000      1.240410000000000      1.951690000000000
O       1.012010000000000      1.682440000000000      1.190630000000000
C       1.527240000000000      4.090170000000000      1.210890000000000
C       1.814560000000000      1.074980000000000      3.438000000000000
H      -0.362850000000000      3.145400000000000      0.892460000000000
H       0.183480000000000      3.034690000000000      2.570150000000000
H       2.376600000000000      0.230960000000000      1.573540000000000
H       3.023510000000000      1.856770000000000      1.769090000000000
H       0.907620000000000      0.450560000000000      3.575490000000000
H       2.672840000000000      0.573070000000000      3.931330000000000
H       1.668550000000000      2.060360000000000      3.922320000000000
H       1.859860000000000      4.033040000000000      0.155030000000000
H       1.030070000000000      5.068960000000000      1.376590000000000
H       2.406000000000000      4.031070000000000      1.882670000000000
H      -2.707460000000000      1.506480000000000      0.985980000000000
C      -2.151200000000000      0.739470000000000      2.966760000000000
C      -2.355920000000000      0.575410000000000      1.476550000000000
C      -3.481170000000000      1.061510000000000      3.625520000000000
H      -1.734710000000000     -0.197850000000000      3.389620000000000
H      -1.426980000000000      1.557100000000000      3.148900000000000
H      -3.886590000000000      1.999880000000000      3.188080000000000
H      -4.193850000000000      0.230880000000000      3.429910000000000
C      -3.310810000000000      1.237720000000000      5.125760000000000
H      -3.000960000000000     -0.294730000000000      1.235260000000000
H      -2.914810000000000      0.303560000000000      5.578350000000000
H      -2.609220000000000      2.073330000000000      5.335690000000000
H      -4.296890000000000      1.469780000000000      5.576190000000000
C       0.649300000000000     -1.323770000000000     -4.454260000000000
C       0.379060000000000     -2.629900000000000     -4.129360000000000
C       0.832090000000000     -2.841130000000000     -2.832800000000000
C       1.346120000000000     -1.694100000000000     -2.372420000000000
N       1.274210000000000     -0.702520000000000     -3.369800000000000
C       1.999770000000000     -1.417860000000000     -1.034680000000000
N       1.123010000000000     -1.469260000000000      0.149980000000000
C       0.714600000000000     -2.701160000000000      0.837440000000000
H      -0.096780000000000     -3.346880000000000     -4.784070000000000
H       0.424770000000000     -0.834040000000000     -5.392930000000000
H       0.779800000000000     -3.784170000000000     -2.315360000000000
H       2.364940000000000     -0.369160000000000     -1.083170000000000
H       2.897250000000000     -2.045770000000000     -0.898320000000000
C       1.773870000000000     -3.795870000000000      0.688840000000000
C       0.568440000000000     -2.361270000000000      2.333880000000000
C      -0.666960000000000     -3.165850000000000      0.333490000000000
H       2.748490000000000     -3.416820000000000      1.067560000000000
H       1.487820000000000     -4.695980000000000      1.267990000000000
H       1.892270000000000     -4.085070000000000     -0.371550000000000
H      -0.180780000000000     -1.556960000000000      2.477160000000000
H       0.234270000000000     -3.246570000000000      2.916630000000000
H       1.530910000000000     -2.001210000000000      2.755580000000000
H      -1.447830000000000     -2.401170000000000      0.543450000000000
H      -0.680910000000000     -3.349120000000000     -0.749890000000000
H      -0.964390000000000     -4.104470000000000      0.845800000000000
C      -1.373550000000000      1.029100000000000     -2.561270000000000
C       0.651020000000000      2.111340000000000     -2.011070000000000
O      -0.496340000000000      1.439020000000000     -1.530510000000000
C      -2.002270000000000     -0.321100000000000     -2.207300000000000
C       0.328220000000000      3.538690000000000     -2.400080000000000
H      -2.184180000000000      1.779870000000000     -2.650000000000000
H      -0.872320000000000      0.917720000000000     -3.546790000000000
H       1.407620000000000      2.120410000000000     -1.201510000000000
H       1.144360000000000      1.595470000000000     -2.850660000000000
H      -0.125010000000000      4.070080000000000     -1.538620000000000
H       1.264420000000000      4.050660000000000     -2.704210000000000
H      -0.378690000000000      3.535830000000000     -3.254170000000000
H      -1.233100000000000     -1.109140000000000     -2.115350000000000
H      -2.549340000000000     -0.267550000000000     -1.244760000000000
H      -2.713800000000000     -0.625300000000000     -3.002300000000000
Na     -6.114030000000000     -5.469830000000000     -3.076330000000000
C      -7.889390000000000     -2.921570000000000     -2.338750000000000
C      -8.792590000000001     -4.699880000000000     -1.103490000000000
O      -8.164199999999999     -4.308820000000000     -2.309490000000000
C      -6.514660000000000     -2.627170000000000     -1.746230000000000
C     -10.312430000000001     -4.614530000000000     -1.220040000000000
H      -7.887280000000000     -2.597760000000000     -3.401160000000000
H      -8.676180000000000     -2.317030000000000     -1.834030000000000
H      -8.514620000000001     -5.757080000000000     -0.905470000000000
H      -8.436769999999999     -4.116460000000000     -0.225500000000000
H     -10.676470000000000     -5.266390000000000     -2.041260000000000
H     -10.774150000000001     -4.953490000000000     -0.268970000000000
H     -10.632479999999999     -3.570850000000000     -1.417790000000000
H      -5.729690000000000     -3.177060000000000     -2.306400000000000
H      -6.306980000000000     -1.539140000000000     -1.814670000000000
H      -6.475960000000000     -2.928580000000000     -0.679710000000000
C      -5.074960000000000     -5.914900000000000      0.089130000000000
C      -3.711620000000000     -7.118180000000000     -1.453310000000000
O      -4.898080000000000     -6.373710000000000     -1.239380000000000
C      -3.994790000000000     -4.937290000000000      0.552150000000000
C      -3.660030000000000     -8.425039999999999     -0.662310000000000
H      -6.036180000000000     -5.359790000000000      0.103520000000000
H      -5.207140000000000     -6.755080000000000      0.801350000000000
H      -3.704160000000000     -7.394350000000000     -2.529660000000000
H      -2.801000000000000     -6.502590000000000     -1.300370000000000
H      -4.574990000000000     -9.023360000000000     -0.856640000000000
H      -2.771750000000000     -9.010410000000000     -0.979580000000000
H      -3.564130000000000     -8.228470000000000      0.424520000000000
H      -3.904580000000000     -4.095420000000000     -0.166260000000000
H      -4.271310000000000     -4.531670000000000      1.546780000000000
H      -3.017820000000000     -5.449020000000000      0.658210000000000
Na     -9.489929999999999     -5.215880000000000     -4.082760000000000
C      -6.923620000000000     -6.392220000000000     -5.840970000000000
C      -7.800340000000000     -7.996260000000000     -4.378980000000000
O      -7.589800000000000     -6.619180000000000     -4.616180000000000
C      -7.058140000000000     -4.918490000000000     -6.203670000000000
C      -6.541090000000000     -8.684720000000000     -3.856210000000000
H      -5.841750000000000     -6.622010000000000     -5.735620000000000
H      -7.366290000000000     -6.980610000000000     -6.675890000000000
H      -8.580970000000001     -8.077360000000001     -3.592410000000000
H      -8.208940000000000     -8.520239999999999     -5.271140000000000
H      -6.186650000000000     -8.182029999999999     -2.932860000000000
H      -6.772020000000000     -9.744280000000000     -3.618680000000000
H      -5.735010000000000     -8.665920000000000     -4.617670000000000
H      -6.633470000000000     -4.283370000000000     -5.396900000000000
H      -6.513460000000000     -4.710220000000000     -7.148490000000000
H      -8.127310000000000     -4.654640000000000     -6.342890000000000
C     -11.458340000000000     -5.439810000000000     -6.740380000000000
C     -11.265470000000001     -3.219880000000000     -6.110280000000000
O     -10.808330000000000     -4.531130000000000     -5.885220000000000
C     -10.941660000000001     -6.837730000000000     -6.427100000000000
C     -10.503500000000001     -2.287070000000000     -5.178360000000000
H     -12.558320000000000     -5.432290000000000     -6.568130000000000
H     -11.222899999999999     -5.215230000000000     -7.804840000000000
H     -11.061040000000000     -2.902780000000000     -7.157690000000000
H     -12.350360000000000     -3.133720000000000     -5.875660000000000
H      -9.414370000000000     -2.350750000000000     -5.388690000000000
H     -10.838229999999999     -1.239500000000000     -5.326870000000000
H     -10.681450000000000     -2.576720000000000     -4.119940000000000
H     -11.158849999999999     -7.096950000000000     -5.368300000000000
H     -11.427160000000001     -7.584150000000000     -7.089160000000000
H      -9.844160000000000     -6.878100000000000     -6.585940000000000
Mg    -10.041880000000001     -7.400090000000000      5.396100000000000
H      -7.211740000000000     -7.843800000000000      6.537370000000000
C      -6.860530000000000     -6.128000000000000      5.228040000000000
C      -7.507530000000000     -7.465250000000000      5.537280000000000
C      -5.343530000000000     -6.288540000000000      5.192300000000000
H      -7.230280000000000     -5.764240000000000      4.244540000000000
H      -7.154880000000000     -5.395250000000000      6.011150000000000
H      -4.990430000000000     -6.664520000000000      6.177360000000000
H      -5.071160000000000     -7.026410000000000      4.406090000000000
C      -4.656130000000000     -4.965120000000000      4.891220000000000
H      -7.293470000000000     -8.214010000000000      4.746180000000000
H      -4.985000000000000     -4.578480000000000      3.904160000000000
H      -4.898950000000000     -4.218920000000000      5.677210000000000
H      -3.557780000000000     -5.122530000000000      4.870190000000000
C     -11.485560000000000     -9.648380000000000      7.100690000000000
C     -12.812950000000001     -9.828300000000000      7.457510000000000
C     -13.519019999999999     -8.762430000000000      6.921020000000000
C     -12.596700000000000     -7.971790000000000      6.274800000000000
N     -11.375140000000000     -8.524200000000000      6.382740000000000
C     -12.840230000000000     -6.676060000000000      5.525560000000000
N     -11.551940000000000     -6.066340000000000      5.133960000000000
C     -11.498540000000000     -4.784240000000000      4.410080000000000
H     -13.220630000000000    -10.643300000000000      8.037940000000001
H     -10.659850000000000    -10.305099999999999      7.350880000000000
H     -14.583230000000000     -8.579650000000001      7.000830000000000
H     -13.387100000000000     -5.984820000000000      6.195360000000000
H     -13.454250000000000     -6.911300000000000      4.631800000000000
C     -12.056550000000000     -3.659660000000000      5.303130000000000
C     -10.029400000000001     -4.462000000000000      4.081460000000000
C     -12.293350000000000     -4.866860000000000      3.094840000000000
H     -11.473800000000001     -3.596400000000000      6.248470000000000
H     -11.995110000000000     -2.678480000000000      4.786120000000000
H     -13.120160000000000     -3.838740000000000      5.559730000000000
H      -9.590330000000000     -5.247190000000000      3.429600000000000
H      -9.951250000000000     -3.487410000000000      3.549720000000000
H      -9.423260000000001     -4.396690000000000      5.010460000000000
H     -11.891760000000000     -5.680040000000000      2.452550000000000
H     -13.367360000000000     -5.063580000000000      3.289940000000000
H     -12.223390000000000     -3.908270000000000      2.537040000000000
