110

Mg      0.780870000000000     -0.339790000000000     -0.533490000000000
C      -0.335790000000000      2.145040000000000      1.314280000000000
C      -1.361610000000000      2.200620000000000     -0.847620000000000
O      -0.324180000000000      1.701900000000000     -0.031410000000000
C      -1.681950000000000      2.029410000000000      2.033000000000000
C      -1.228960000000000      3.693240000000000     -1.106180000000000
H       0.361520000000000      1.478210000000000      1.858220000000000
H       0.082580000000000      3.168440000000000      1.396350000000000
H      -1.273390000000000      1.686090000000000     -1.823530000000000
H      -2.365410000000000      1.918880000000000     -0.473220000000000
H      -1.992750000000000      4.001070000000000     -1.849870000000000
H      -0.219270000000000      3.922200000000000     -1.505570000000000
H      -1.390470000000000      4.259060000000000     -0.168050000000000
H      -2.093120000000000      1.011690000000000      1.930750000000000
H      -2.406760000000000      2.766730000000000      1.633310000000000
H      -1.540510000000000      2.228820000000000      3.113980000000000
H       2.620340000000000      1.024300000000000     -1.898370000000000
C       1.801670000000000     -0.339150000000000     -3.409240000000000
C       2.298410000000000     -0.032820000000000     -1.985910000000000
C       0.553000000000000      0.446650000000000     -3.856650000000000
H       2.630610000000000     -0.136610000000000     -4.118730000000000
H       1.546270000000000     -1.419030000000000     -3.465010000000000
H       0.300840000000000      0.138710000000000     -4.896630000000000
H      -0.309710000000000      0.177100000000000     -3.214810000000000
C       0.745290000000000      1.963110000000000     -3.852320000000000
H       3.144160000000000     -0.697500000000000     -1.725520000000000
H       0.951820000000000      2.325500000000000     -2.827100000000000
H       1.583340000000000      2.252730000000000     -4.519360000000000
H      -0.182930000000000      2.459110000000000     -4.212250000000000
C      -3.108980000000000     -0.826590000000000     -0.888310000000000
C      -2.197210000000000     -1.521260000000000     -1.649670000000000
C      -1.206030000000000     -1.973920000000000     -0.796710000000000
C      -1.490240000000000     -1.545840000000000      0.438120000000000
N      -2.706560000000000     -0.834510000000000      0.454210000000000
C      -0.627630000000000     -1.738070000000000      1.657040000000000
N       0.677710000000000     -1.108790000000000      1.420790000000000
C       1.757440000000000     -1.297390000000000      2.419640000000000
H      -2.246790000000000     -1.658370000000000     -2.721520000000000
H      -3.995510000000000     -0.330480000000000     -1.256960000000000
H      -0.322710000000000     -2.529080000000000     -1.089380000000000
H      -0.523920000000000     -2.820680000000000      1.853590000000000
H      -1.126000000000000     -1.245300000000000      2.518290000000000
C       2.209980000000000     -2.770240000000000      2.462190000000000
C       2.957550000000000     -0.423390000000000      2.019600000000000
C       1.286380000000000     -0.865450000000000      3.829400000000000
H       2.580920000000000     -3.091440000000000      1.466670000000000
H       3.025240000000000     -2.906130000000000      3.206490000000000
H       1.382310000000000     -3.441790000000000      2.767290000000000
H       2.679820000000000      0.651680000000000      2.014700000000000
H       3.798770000000000     -0.559100000000000      2.736360000000000
H       3.316500000000000     -0.698620000000000      1.005800000000000
H       0.956190000000000      0.195200000000000      3.827270000000000
H       0.444370000000000     -1.493970000000000      4.187370000000000
H       2.110160000000000     -0.966620000000000      4.569870000000000
Na     -4.456120000000000     -5.155640000000000      0.902620000000000
C      -3.266920000000000     -4.045340000000000      3.747890000000000
C      -3.104490000000000     -6.340900000000000      3.653290000000000
O      -3.972040000000000     -5.239830000000000      3.486810000000000
C      -4.207880000000000     -2.861480000000000      3.578110000000000
C      -3.865050000000000     -7.625080000000000      3.354140000000000
H      -2.889150000000000     -4.030360000000000      4.794450000000000
H      -2.427450000000000     -3.917960000000000      3.028620000000000
H      -2.248160000000000     -6.281180000000000      2.943180000000000
H      -2.737770000000000     -6.399290000000000      4.703590000000000
H      -4.240850000000000     -7.612300000000000      2.308850000000000
H      -3.191520000000000     -8.498950000000001      3.482080000000000
H      -4.725590000000000     -7.730610000000000      4.048490000000000
H      -5.059010000000000     -2.945960000000000      4.287080000000000
H      -3.662090000000000     -1.915990000000000      3.782760000000000
H      -4.600840000000000     -2.831170000000000      2.539670000000000
Na     -5.631290000000000     -5.456720000000000      5.523160000000000
Mg     -1.611630000000000     -7.003870000000000     10.605639999999999
H      -0.672480000000000     -7.881470000000000     13.411849999999999
C       0.462570000000000     -6.029580000000000     13.160000000000000
C      -0.110690000000000     -7.330660000000000     12.629610000000000
C       1.460320000000000     -6.326040000000000     14.275890000000000
H       0.966400000000000     -5.489390000000000     12.329029999999999
H      -0.369230000000000     -5.397560000000000     13.541330000000000
H       0.944430000000000     -6.875410000000000     15.093389999999999
H       2.280130000000000     -6.962170000000000     13.876020000000000
C       2.056250000000000     -5.044020000000000     14.838520000000001
H       0.677790000000000     -7.969040000000000     12.178870000000000
H       2.593460000000000     -4.487670000000000     14.041259999999999
H       1.254740000000000     -4.401390000000000     15.260780000000000
H       2.774190000000000     -5.300810000000000     15.644869999999999
C      -3.713590000000000     -9.335880000000000     10.172810000000000
C      -4.819330000000000     -9.440939999999999      9.343740000000000
C      -4.913600000000000     -8.245110000000000      8.648030000000000
C      -3.875330000000000     -7.457350000000000      9.090009999999999
N      -3.153660000000000     -8.131460000000001     10.001820000000000
C      -3.525750000000000     -6.046440000000000      8.656900000000000
N      -2.442820000000000     -5.509680000000000      9.508039999999999
C      -1.923160000000000     -4.144350000000000      9.318099999999999
H      -5.479280000000000    -10.291820000000000      9.253170000000001
H      -3.346070000000000    -10.096909999999999     10.851649999999999
H      -5.659510000000000     -7.976810000000000      7.910950000000000
H      -4.428370000000000     -5.415220000000000      8.766990000000000
H      -3.211540000000000     -6.085620000000000      7.593350000000000
C      -3.029130000000000     -3.118780000000000      9.631300000000000
C      -0.757120000000000     -3.917920000000000     10.297420000000001
C      -1.408410000000000     -3.952750000000000      7.880960000000000
H      -3.392570000000000     -3.253760000000000     10.673850000000000
H      -2.646390000000000     -2.081520000000000      9.524110000000000
H      -3.890850000000000     -3.232400000000000      8.943040000000000
H       0.068060000000000     -4.634880000000000     10.099580000000000
H      -0.352190000000000     -2.886500000000000     10.193080000000000
H      -1.093540000000000     -4.050690000000000     11.348100000000001
H      -0.613520000000000     -4.695360000000000      7.653790000000000
H      -2.230040000000000     -4.074080000000000      7.147320000000000
H      -0.988620000000000     -2.932250000000000      7.749850000000000
