140

Mg     -0.036320000000000      0.305460000000000     -0.380690000000000
C       3.073720000000000      1.139530000000000      1.012530000000000
C       1.254960000000000      1.294270000000000      2.548440000000000
O       1.732270000000000      0.799580000000000      1.311560000000000
C       4.091910000000000      0.509520000000000      1.958390000000000
C       1.199010000000000      2.818100000000000      2.617330000000000
H       3.276980000000000      0.738710000000000     -0.004010000000000
H       3.222720000000000      2.233540000000000      0.938050000000000
H       0.209730000000000      0.939730000000000      2.646400000000000
H       1.793270000000000      0.849720000000000      3.408210000000000
H       0.650440000000000      3.220400000000000      1.740560000000000
H       0.666830000000000      3.120730000000000      3.543210000000000
H       2.218720000000000      3.249340000000000      2.651600000000000
H       3.949310000000000     -0.588520000000000      2.010550000000000
H       5.113540000000000      0.719340000000000      1.577670000000000
H       4.006110000000000      0.945560000000000      2.973200000000000
H       1.826380000000000      1.529910000000000     -2.348780000000000
C       1.134570000000000      3.362070000000000     -1.358550000000000
C       0.900800000000000      1.984040000000000     -1.938670000000000
C       1.593060000000000      4.302830000000000     -2.459850000000000
H       0.194240000000000      3.737630000000000     -0.904900000000000
H       1.904790000000000      3.298910000000000     -0.565390000000000
H       2.532510000000000      3.910730000000000     -2.907010000000000
H       0.808650000000000      4.351970000000000     -3.246260000000000
C       1.842120000000000      5.697310000000000     -1.908320000000000
H       0.071330000000000      1.976980000000000     -2.675830000000000
H       0.908460000000000      6.106470000000000     -1.466530000000000
H       2.633400000000000      5.664700000000000     -1.129040000000000
H       2.173060000000000      6.358580000000000     -2.734400000000000
C      -1.564180000000000     -4.346660000000000     -0.623520000000000
C      -2.823840000000000     -3.866590000000000     -0.877680000000000
C      -2.993810000000000     -2.709470000000000     -0.126770000000000
C      -1.861460000000000     -2.480070000000000      0.551830000000000
N      -0.928540000000000     -3.497930000000000      0.290390000000000
C      -1.561670000000000     -1.365840000000000      1.535060000000000
N      -1.477600000000000     -0.003290000000000      0.980450000000000
C      -2.634230000000000      0.855000000000000      0.684740000000000
H      -3.541460000000000     -4.326970000000000     -1.544090000000000
H      -1.115380000000000     -5.234520000000000     -1.047800000000000
H      -3.896630000000000     -2.126210000000000     -0.101210000000000
H      -0.548320000000000     -1.581670000000000      1.939230000000000
H      -2.248010000000000     -1.408960000000000      2.398640000000000
C      -3.813480000000000      0.534620000000000      1.607000000000000
C      -2.196400000000000      2.310970000000000      0.937310000000000
C      -3.020420000000000      0.741600000000000     -0.804290000000000
H      -3.489410000000000      0.634200000000000      2.666140000000000
H      -4.654020000000000      1.232650000000000      1.421170000000000
H      -4.173370000000000     -0.497250000000000      1.440480000000000
H      -1.331190000000000      2.572290000000000      0.295190000000000
H      -3.018310000000000      3.023450000000000      0.709010000000000
H      -1.885030000000000      2.455040000000000      1.993730000000000
H      -2.184880000000000      1.075180000000000     -1.459260000000000
H      -3.266570000000000     -0.288120000000000     -1.098510000000000
H      -3.900370000000000      1.382650000000000     -1.025350000000000
C       1.045720000000000     -2.198720000000000     -1.970920000000000
C       2.003900000000000     -2.244890000000000      0.185500000000000
O       1.448820000000000     -1.448030000000000     -0.842160000000000
C      -0.229980000000000     -1.599720000000000     -2.567540000000000
C       3.427560000000000     -2.646070000000000     -0.139670000000000
H       1.848210000000000     -2.143100000000000     -2.733640000000000
H       0.838570000000000     -3.265690000000000     -1.739050000000000
H       2.001570000000000     -1.649310000000000      1.120070000000000
H       1.405150000000000     -3.140190000000000      0.420390000000000
H       4.039480000000000     -1.740920000000000     -0.330150000000000
H       3.849570000000000     -3.208060000000000      0.718910000000000
H       3.430330000000000     -3.297110000000000     -1.037140000000000
H      -1.065930000000000     -1.638650000000000     -1.845570000000000
H      -0.076970000000000     -0.539640000000000     -2.853160000000000
H      -0.527680000000000     -2.170530000000000     -3.471050000000000
Na     11.922160000000000      0.244370000000000     11.839869999999999
C       8.779790000000000      0.127210000000000     12.789750000000000
C       9.047020000000000      1.647200000000000     11.080240000000000
O       9.535830000000001      1.229840000000000     12.336420000000000
C       9.301810000000000     -0.306540000000000     14.152180000000000
C       9.871050000000000      2.828510000000000     10.589440000000000
H       7.706780000000000      0.402910000000000     12.908600000000000
H       8.885160000000001     -0.736260000000000     12.094030000000000
H       9.139500000000000      0.831130000000000     10.327410000000000
H       7.991560000000000      1.987070000000000     11.164840000000000
H      10.937220000000000      2.535020000000000     10.485939999999999
H       9.492680000000000      3.163970000000000      9.600390000000001
H       9.794230000000001      3.672170000000000     11.307900000000000
H       9.204720000000000      0.525680000000000     14.881510000000000
H       8.716620000000001     -1.176010000000000     14.519579999999999
H      10.370690000000000     -0.599360000000000     14.076409999999999
Na      8.817209999999999      3.189540000000000     13.952950000000000
Mg      4.032120000000000     -0.038550000000000      9.120780000000000
C       4.705020000000000     -3.159320000000000      9.557860000000000
C       5.530480000000000     -2.372710000000000      7.465670000000000
O       4.476630000000000     -2.365830000000000      8.407500000000001
C       5.923570000000000     -2.736850000000000     10.380450000000000
C       5.630510000000000     -3.699570000000000      6.726330000000000
H       3.821460000000000     -3.013740000000000     10.209339999999999
H       4.716110000000000     -4.241290000000000      9.318160000000001
H       5.290060000000000     -1.588740000000000      6.715100000000000
H       6.501520000000000     -2.063820000000000      7.902890000000000
H       4.644070000000000     -3.957180000000000      6.286510000000000
H       6.380610000000000     -3.611420000000000      5.913370000000000
H       5.954130000000000     -4.504800000000000      7.415790000000000
H       5.909460000000000     -1.644120000000000     10.559850000000001
H       5.904780000000000     -3.262410000000000     11.358020000000000
H       6.864670000000000     -3.012260000000000      9.865340000000000
H       6.018110000000000      1.416330000000000     10.025259999999999
C       5.704990000000000      2.059580000000000      7.971720000000000
C       5.856860000000000      0.977030000000000      9.021360000000000
C       4.470230000000000      2.917350000000000      8.267790000000000
H       6.627030000000000      2.676270000000000      7.979150000000000
H       5.583970000000000      1.587950000000000      6.971180000000000
H       3.553920000000000      2.296520000000000      8.169499999999999
H       4.515200000000000      3.312560000000000      9.305040000000000
C       4.385070000000000      4.095970000000000      7.306920000000000
H       6.688030000000000      0.287220000000000      8.769439999999999
H       5.277010000000000      4.745350000000000      7.437830000000000
H       4.338570000000000      3.742550000000000      6.255150000000000
H       3.475640000000000      4.693110000000000      7.528040000000000
C       0.919240000000000      1.535610000000000      7.388080000000000
C       1.708440000000000      0.576420000000000      6.790910000000000
C       1.847730000000000     -0.457950000000000      7.697630000000000
C       1.187000000000000     -0.138670000000000      8.811389999999999
N       0.547180000000000      1.116020000000000      8.669990000000000
C       1.091690000000000     -0.961720000000000     10.065180000000000
N       2.388190000000000     -1.029410000000000     10.767510000000000
C       2.570550000000000     -0.147300000000000     11.946910000000001
H       2.141280000000000      0.640400000000000      5.803790000000000
H       0.630330000000000      2.479170000000000      6.944280000000000
H       2.409670000000000     -1.367130000000000      7.527700000000000
H       0.775350000000000     -1.991510000000000      9.792450000000001
H       0.302680000000000     -0.537680000000000     10.705650000000000
C       1.593830000000000     -0.533450000000000     13.077170000000001
C       4.004190000000000     -0.354790000000000     12.474230000000000
C       2.410820000000000      1.343710000000000     11.580810000000000
H       1.699510000000000     -1.612370000000000     13.320050000000000
H       1.807750000000000      0.057600000000000     13.993359999999999
H       0.538390000000000     -0.333420000000000     12.811680000000001
H       4.750280000000000     -0.049690000000000     11.712960000000001
H       4.187930000000000      0.257900000000000     13.384639999999999
H       4.178930000000000     -1.421600000000000     12.731890000000000
H       3.160900000000000      1.644660000000000     10.818820000000001
H       1.399390000000000      1.558820000000000     11.185350000000000
H       2.561710000000000      1.981780000000000     12.478820000000001
