110

Mg      0.780670000000000     -0.338700000000000     -0.533480000000000
C      -0.336090000000000      2.144860000000000      1.314520000000000
C      -1.361770000000000      2.200650000000000     -0.847490000000000
O      -0.324420000000000      1.701960000000000     -0.031220000000000
C      -1.682290000000000      2.029210000000000      2.033280000000000
C      -1.229010000000000      3.693230000000000     -1.106110000000000
H       0.361250000000000      1.477880000000000      1.858290000000000
H       0.082340000000000      3.168240000000000      1.396660000000000
H      -1.273470000000000      1.686090000000000     -1.823390000000000
H      -2.365570000000000      1.918930000000000     -0.473120000000000
H      -1.992770000000000      4.001070000000000     -1.849840000000000
H      -0.219300000000000      3.922140000000000     -1.505500000000000
H      -1.390510000000000      4.259080000000000     -0.168000000000000
H      -2.093620000000000      1.011570000000000      1.931130000000000
H      -2.407040000000000      2.766560000000000      1.633580000000000
H      -1.540840000000000      2.228540000000000      3.114270000000000
H       2.620410000000000      1.024250000000000     -1.898490000000000
C       1.801640000000000     -0.339180000000000     -3.409280000000000
C       2.298360000000000     -0.032840000000000     -1.985970000000000
C       0.552980000000000      0.446660000000000     -3.856660000000000
H       2.630600000000000     -0.136650000000000     -4.118750000000000
H       1.546200000000000     -1.419050000000000     -3.465030000000000
H       0.300820000000000      0.138720000000000     -4.896640000000000
H      -0.309730000000000      0.177110000000000     -3.214820000000000
C       0.745290000000000      1.963110000000000     -3.852320000000000
H       3.144060000000000     -0.697570000000000     -1.725480000000000
H       0.951810000000000      2.325500000000000     -2.827100000000000
H       1.583340000000000      2.252730000000000     -4.519360000000000
H      -0.182930000000000      2.459120000000000     -4.212250000000000
C      -3.109250000000000     -0.826320000000000     -0.888200000000000
C      -2.197640000000000     -1.521370000000000     -1.649440000000000
C      -1.206540000000000     -1.974110000000000     -0.796410000000000
C      -1.490510000000000     -1.545400000000000      0.438270000000000
N      -2.706590000000000     -0.833630000000000      0.454210000000000
C      -0.627910000000000     -1.737050000000000      1.657280000000000
N       0.678900000000000     -1.111700000000000      1.419100000000000
C       1.757850000000000     -1.297970000000000      2.419140000000000
H      -2.247270000000000     -1.658670000000000     -2.721270000000000
H      -3.995730000000000     -0.330170000000000     -1.256860000000000
H      -0.323260000000000     -2.529380000000000     -1.089090000000000
H      -0.528790000000000     -2.819820000000000      1.858510000000000
H      -1.123260000000000     -1.238740000000000      2.516310000000000
C       2.210720000000000     -2.770460000000000      2.462410000000000
C       2.957680000000000     -0.423550000000000      2.019240000000000
C       1.286140000000000     -0.865310000000000      3.828660000000000
H       2.581790000000000     -3.091700000000000      1.466950000000000
H       3.025700000000000     -2.906110000000000      3.206980000000000
H       1.382660000000000     -3.441750000000000      2.766960000000000
H       2.679580000000000      0.651450000000000      2.014240000000000
H       3.798740000000000     -0.558850000000000      2.736270000000000
H       3.316940000000000     -0.698750000000000      1.005590000000000
H       0.955920000000000      0.195320000000000      3.826330000000000
H       0.444130000000000     -1.493670000000000      4.186870000000000
H       2.109790000000000     -0.966150000000000      4.569390000000000
Na     -5.428740000000000     -0.292410000000000      3.148060000000000
C      -4.222430000000000     -1.698550000000000      5.852640000000000
C      -3.824720000000000     -3.025680000000000      4.012790000000000
O      -4.810220000000000     -2.306400000000000      4.722500000000000
C      -5.291150000000000     -0.935360000000000      6.622010000000000
C      -4.459650000000000     -3.664350000000000      2.786010000000000
H      -3.796330000000000     -2.465730000000000      6.536910000000000
H      -3.437420000000000     -0.970110000000000      5.546320000000000
H      -3.016950000000000     -2.346040000000000      3.660190000000000
H      -3.401850000000000     -3.842000000000000      4.641910000000000
H      -4.886160000000000     -2.880660000000000      2.124270000000000
H      -3.692230000000000     -4.233050000000000      2.219280000000000
H      -5.268750000000000     -4.360580000000000      3.093900000000000
H      -6.091540000000000     -1.629550000000000      6.955720000000000
H      -4.838930000000000     -0.453910000000000      7.514990000000000
H      -5.737700000000000     -0.148570000000000      5.977580000000000
Na     -6.334250000000000     -4.199430000000000      5.745300000000000
Mg     -1.924910000000000     -8.695869999999999      7.918620000000000
H      -0.759540000000000    -11.326400000000000      9.036170000000000
C       0.161940000000000     -9.866780000000000     10.378430000000000
C      -0.298320000000000    -10.317850000000000      9.004580000000001
C       1.239980000000000    -10.815230000000000     10.895049999999999
H       0.564260000000000     -8.832890000000001     10.305190000000000
H      -0.711070000000000     -9.859900000000000     11.067320000000000
H       0.825960000000000    -11.845560000000001     10.952109999999999
H       2.100570000000000    -10.811460000000000     10.190770000000001
C       1.726360000000000    -10.398690000000000     12.275330000000000
H       0.528830000000000    -10.279109999999999      8.265180000000001
H       2.161830000000000     -9.377580000000000     12.237430000000000
H       0.884380000000000    -10.413959999999999     12.999590000000000
H       2.506770000000000    -11.110680000000000     12.615330000000000
C      -3.791120000000000    -10.019800000000000      5.725880000000000
C      -4.920100000000000     -9.554290000000000      5.070340000000000
C      -5.173490000000000     -8.282819999999999      5.562350000000000
C      -4.202230000000000     -8.031760000000000      6.504420000000000
N      -3.369250000000000     -9.083510000000000      6.585400000000000
C      -4.024020000000000     -6.785630000000000      7.350440000000000
N      -2.961800000000000     -7.004010000000000      8.355079999999999
C      -2.597600000000000     -5.957680000000000      9.326000000000001
H      -5.491370000000000    -10.078670000000001      4.317740000000000
H      -3.312540000000000    -10.980779999999999      5.575790000000000
H      -5.979400000000000     -7.620580000000000      5.273230000000000
H      -4.980930000000000     -6.575260000000000      7.865550000000000
H      -3.761140000000000     -5.948560000000000      6.671010000000000
C      -3.787390000000000     -5.682880000000000     10.265120000000000
C      -1.413800000000000     -6.458800000000000     10.173050000000000
C      -2.178510000000000     -4.666140000000000      8.602800000000000
H      -4.081950000000000     -6.616370000000000     10.793360000000000
H      -3.520830000000000     -4.918100000000000     11.025340000000000
H      -4.666020000000000     -5.306880000000000      9.703139999999999
H      -0.529270000000000     -6.661800000000000      9.532320000000000
H      -1.124490000000000     -5.697510000000000     10.931609999999999
H      -1.681270000000000     -7.394450000000000     10.709450000000000
H      -1.322890000000000     -4.865360000000000      7.922230000000000
H      -3.018820000000000     -4.255340000000000      8.008520000000001
H      -1.874660000000000     -3.889340000000000      9.337000000000000
