200

Mg     -0.009380000000000      0.301010000000000      0.398640000000000
C       1.180050000000000      2.231110000000000     -2.263680000000000
C       2.660800000000000      0.480920000000000     -1.600590000000000
O       1.351820000000000      1.016640000000000     -1.557120000000000
C       1.352570000000000      2.090970000000000     -3.772730000000000
C       3.707790000000000      1.367580000000000     -0.931810000000000
H       0.131560000000000      2.551510000000000     -2.080680000000000
H       1.815820000000000      3.043570000000000     -1.863450000000000
H       2.633090000000000     -0.460450000000000     -1.016760000000000
H       2.953010000000000      0.177400000000000     -2.626230000000000
H       3.379870000000000      1.644820000000000      0.091330000000000
H       4.662380000000000      0.807060000000000     -0.861690000000000
H       3.889190000000000      2.282900000000000     -1.528650000000000
H       0.697690000000000      1.288470000000000     -4.167630000000000
H       1.074110000000000      3.050430000000000     -4.257080000000000
H       2.408040000000000      1.869920000000000     -4.025990000000000
H      -0.927930000000000      3.115320000000000      0.517160000000000
C       1.091990000000000      3.385130000000000      1.335450000000000
C      -0.208930000000000      2.623540000000000      1.204400000000000
C       0.818730000000000      4.746970000000000      1.949570000000000
H       1.794120000000000      2.813110000000000      1.976320000000000
H       1.549570000000000      3.502780000000000      0.334030000000000
H       0.110690000000000      5.304720000000000      1.298450000000000
H       0.358330000000000      4.607530000000000      2.951940000000000
C       2.106470000000000      5.542420000000000      2.091450000000000
H      -0.662090000000000      2.394920000000000      2.191180000000000
H       2.820870000000000      5.001100000000000      2.747950000000000
H       2.571150000000000      5.699350000000000      1.094520000000000
H       1.873560000000000      6.527930000000000      2.542720000000000
C      -2.977290000000000     -3.472260000000000     -0.360090000000000
C      -2.740840000000000     -3.899230000000000      0.928400000000000
C      -1.410840000000000     -3.622120000000000      1.205200000000000
C      -0.910380000000000     -3.036630000000000      0.120370000000000
N      -1.912160000000000     -2.965800000000000     -0.860670000000000
C       0.507730000000000     -2.564570000000000     -0.138170000000000
N       0.979870000000000     -1.420780000000000      0.664580000000000
C       1.462090000000000     -1.508320000000000      2.050450000000000
H      -3.459600000000000     -4.375760000000000      1.583160000000000
H      -3.909450000000000     -3.539670000000000     -0.902470000000000
H      -0.901440000000000     -3.861440000000000      2.121680000000000
H       0.527440000000000     -2.214590000000000     -1.192970000000000
H       1.215660000000000     -3.409800000000000     -0.083740000000000
C       2.092980000000000     -2.873880000000000      2.332110000000000
C       2.544610000000000     -0.424350000000000      2.228000000000000
C       0.322150000000000     -1.185970000000000      3.038950000000000
H       2.909890000000000     -3.058470000000000      1.600530000000000
H       2.513480000000000     -2.904010000000000      3.356930000000000
H       1.342670000000000     -3.679930000000000      2.238160000000000
H       2.126140000000000      0.579760000000000      2.014840000000000
H       2.938600000000000     -0.415480000000000      3.267290000000000
H       3.392590000000000     -0.589240000000000      1.529760000000000
H      -0.055650000000000     -0.150090000000000      2.888540000000000
H      -0.537940000000000     -1.859950000000000      2.924720000000000
H       0.684580000000000     -1.265610000000000      4.086000000000000
C      -2.967060000000000      0.120960000000000     -0.693960000000000
C      -1.498370000000000     -0.228250000000000     -2.506920000000000
O      -1.682560000000000      0.359920000000000     -1.234850000000000
C      -2.867630000000000     -0.075970000000000      0.820420000000000
C      -2.182890000000000      0.583380000000000     -3.588100000000000
H      -3.600750000000000      1.008760000000000     -0.890920000000000
H      -3.462820000000000     -0.778600000000000     -1.118070000000000
H      -0.410710000000000     -0.258050000000000     -2.716690000000000
H      -1.821940000000000     -1.282390000000000     -2.553030000000000
H      -1.815870000000000      1.629960000000000     -3.561340000000000
H      -1.956610000000000      0.135040000000000     -4.577310000000000
H      -3.279110000000000      0.567470000000000     -3.423200000000000
H      -2.248710000000000     -0.956370000000000      1.070430000000000
H      -2.411050000000000      0.807960000000000      1.308860000000000
H      -3.879580000000000     -0.234000000000000      1.246540000000000
Na      9.872450000000001      2.438880000000000      2.496490000000000
C       7.678510000000000      0.304080000000000      1.580810000000000
C       7.154300000000000      0.818940000000000      3.808040000000000
O       8.186040000000000      0.649130000000000      2.855090000000000
C       7.383620000000000      1.554090000000000      0.758270000000000
C       6.841020000000000     -0.494290000000000      4.520360000000000
H       8.458580000000000     -0.284390000000000      1.052920000000000
H       6.781670000000000     -0.353270000000000      1.637830000000000
H       7.509850000000000      1.552180000000000      4.563170000000000
H       6.229260000000000      1.252250000000000      3.366740000000000
H       7.744790000000000     -0.882840000000000      5.034200000000000
H       6.050620000000000     -0.321250000000000      5.280170000000000
H       6.479250000000000     -1.255180000000000      3.798530000000000
H       8.303140000000001      2.165880000000000      0.647520000000000
H       7.029910000000000      1.258120000000000     -0.250440000000000
H       6.597400000000000      2.166280000000000      1.245290000000000
C       7.579760000000000      4.826940000000000      3.107390000000000
C       9.777250000000000      5.741210000000000      2.966110000000000
O       8.973070000000000      4.577480000000000      3.049140000000000
C       7.021500000000000      5.508260000000000      1.857350000000000
C       9.671680000000000      6.646450000000000      4.193340000000000
H       7.086500000000000      3.834810000000000      3.177210000000000
H       7.295890000000000      5.364800000000000      4.034930000000000
H      10.830970000000001      5.391930000000000      2.915070000000000
H       9.604839999999999      6.298620000000000      2.022320000000000
H       9.871960000000000      6.061720000000000      5.115710000000000
H      10.420980000000000      7.461560000000000      4.112690000000000
H       8.669180000000001      7.115520000000000      4.256720000000000
H       7.297490000000000      4.929550000000000      0.950840000000000
H       5.914550000000000      5.555360000000000      1.931540000000000
H       7.396980000000000      6.547560000000000      1.767700000000000
Na      9.785090000000000     -0.825350000000000      3.862160000000000
C      12.459400000000000      0.955510000000000      2.996490000000000
C      11.671490000000000      1.523490000000000      5.123960000000000
O      11.329660000000001      1.043810000000000      3.839100000000000
C      12.104229999999999      0.103670000000000      1.785000000000000
C      11.835680000000000      3.041740000000000      5.139560000000000
H      12.748230000000000      1.965750000000000      2.634740000000000
H      13.315560000000000      0.461340000000000      3.502510000000000
H      10.831260000000000      1.266100000000000      5.803950000000000
H      12.569000000000001      1.014770000000000      5.540870000000000
H      10.907410000000000      3.528120000000000      4.775140000000000
H      12.031510000000001      3.380720000000000      6.178290000000000
H      12.689380000000000      3.354060000000000      4.503930000000000
H      11.241170000000000      0.545920000000000      1.243000000000000
H      12.972740000000000      0.048410000000000      1.095080000000000
H      11.837980000000000     -0.924970000000000      2.106330000000000
C      11.692769999999999     -3.479140000000000      4.420060000000000
C      10.233610000000001     -3.937420000000000      2.681770000000000
O      10.721500000000001     -2.946110000000000      3.552720000000000
C      12.156960000000000     -2.368190000000000      5.352540000000000
C       9.212640000000000     -3.291880000000000      1.754420000000000
H      11.264740000000000     -4.296130000000000      5.043860000000000
H      12.575989999999999     -3.840240000000000      3.846920000000000
H      11.054200000000000     -4.353040000000000      2.054610000000000
H       9.722110000000001     -4.746490000000000      3.250380000000000
H       9.694260000000000     -2.477830000000000      1.171480000000000
H       8.804140000000000     -4.045990000000000      1.050140000000000
H       8.376890000000000     -2.861610000000000      2.347870000000000
H      11.298130000000000     -1.981030000000000      5.942420000000000
H      12.931430000000001     -2.750180000000000      6.049290000000000
H      12.587690000000000     -1.534480000000000      4.760360000000000
Mg     18.546589999999998      1.947290000000000      1.222110000000000
C      17.653400000000001      1.432780000000000     -2.209650000000000
C      16.833700000000000     -0.262830000000000     -0.752220000000000
O      17.382180000000002      1.037030000000000     -0.876440000000000
C      16.401579999999999      1.590850000000000     -3.070700000000000
C      17.788730000000001     -1.372540000000000     -1.189330000000000
H      18.137869999999999      2.430870000000000     -2.148610000000000
H      18.394810000000000      0.772820000000000     -2.700180000000000
H      16.637799999999999     -0.421500000000000      0.327470000000000
H      15.841910000000000     -0.345860000000000     -1.240790000000000
H      18.763980000000000     -1.263840000000000     -0.671350000000000
H      17.349019999999999     -2.356940000000000     -0.925660000000000
H      17.944749999999999     -1.354970000000000     -2.286080000000000
H      15.678879999999999      2.277110000000000     -2.585040000000000
H      16.691820000000000      2.014390000000000     -4.054890000000000
H      15.918670000000001      0.610540000000000     -3.253090000000000
H      20.648450000000000      2.965020000000000     -0.754760000000000
C      21.159210000000002      0.839170000000000     -0.808400000000000
C      20.731970000000000      2.093630000000000     -0.072500000000000
C      22.541720000000002      1.039920000000000     -1.416130000000000
H      21.176490000000001     -0.014090000000000     -0.098380000000000
H      20.422100000000000      0.618320000000000     -1.606000000000000
H      22.513330000000000      1.900270000000000     -2.120000000000000
H      23.270900000000001      1.259660000000000     -0.605970000000000
C      22.988170000000000     -0.205190000000000     -2.167740000000000
H      21.408850000000001      2.315190000000000      0.778890000000000
H      23.034870000000002     -1.073640000000000     -1.476540000000000
H      22.277780000000000     -0.429690000000000     -2.991940000000000
H      23.995870000000000     -0.029980000000000     -2.596910000000000
C      15.893950000000000      4.705460000000000      4.130560000000000
C      16.561640000000001      4.164950000000000      5.208750000000000
C      16.769410000000001      2.827170000000000      4.920790000000000
C      16.262640000000001      2.614140000000000      3.711880000000000
N      15.699050000000000      3.809160000000000      3.232840000000000
C      16.196919999999999      1.309680000000000      2.944500000000000
N      17.487770000000001      0.764670000000000      2.481520000000000
C      18.415929999999999     -0.010090000000000      3.323500000000000
H      16.852370000000001      4.687740000000000      6.111470000000000
H      15.567640000000001      5.730500000000000      4.026980000000000
H      17.236409999999999      2.110980000000000      5.571960000000000
H      15.607860000000001      1.518140000000000      2.024830000000000
H      15.626659999999999      0.555500000000000      3.513460000000000
C      17.682610000000000     -0.783400000000000      4.430030000000000
C      19.114270000000001     -1.028470000000000      2.402240000000000
C      19.511849999999999      0.910560000000000      3.900260000000000
H      16.916770000000000     -1.450570000000000      3.977890000000000
H      18.397079999999999     -1.405930000000000      5.007500000000000
H      17.181000000000001     -0.096340000000000      5.136030000000000
H      19.654229999999998     -0.505390000000000      1.585890000000000
H      19.852589999999999     -1.639820000000000      2.965000000000000
H      18.373439999999999     -1.711060000000000      1.934070000000000
H      20.089860000000002      1.395610000000000      3.083120000000000
H      19.105139999999999      1.715890000000000      4.527430000000000
H      20.227110000000000      0.325290000000000      4.516750000000000
C      17.977620000000002      5.064760000000000      1.155920000000000
C      16.210970000000000      4.012900000000000      0.006290000000000
O      17.571539999999999      3.950570000000000      0.384560000000000
C      18.980910000000002      4.615220000000000      2.217510000000000
C      16.016529999999999      4.942020000000000     -1.178240000000000
H      18.474699999999999      5.796720000000000      0.487230000000000
H      17.138280000000002      5.568980000000000      1.683060000000000
H      15.892400000000000      2.991630000000000     -0.285500000000000
H      15.538209999999999      4.295780000000000      0.838390000000000
H      16.665050000000001      4.621380000000000     -2.019830000000000
H      14.954580000000000      4.909200000000000     -1.498490000000000
H      16.275230000000001      5.979770000000000     -0.885000000000000
H      18.522030000000001      3.884260000000000      2.910580000000000
H      19.863399999999999      4.137310000000000      1.745810000000000
H      19.323509999999999      5.488420000000000      2.809620000000000
