170

Mg     -0.349470000000000      0.296210000000000     -0.897630000000000
C       2.103310000000000     -1.404220000000000      0.499860000000000
C       2.361830000000000      0.932520000000000      0.951770000000000
O       1.738600000000000     -0.072580000000000      0.181120000000000
C       2.048250000000000     -1.760780000000000      1.985900000000000
C       3.852890000000000      1.038650000000000      0.671190000000000
H       1.356830000000000     -2.051830000000000      0.000050000000000
H       3.087080000000000     -1.660810000000000      0.057590000000000
H       1.900050000000000      1.893330000000000      0.654080000000000
H       2.135960000000000      0.837210000000000      2.032320000000000
H       4.260110000000000      1.921160000000000      1.206640000000000
H       4.027600000000000      1.161840000000000     -0.417730000000000
H       4.374930000000000      0.129100000000000      1.027020000000000
H       1.071610000000000     -1.487850000000000      2.419140000000000
H       2.859610000000000     -1.246450000000000      2.536650000000000
H       2.179390000000000     -2.854170000000000      2.110610000000000
H       0.950590000000000      1.060190000000000     -3.099070000000000
C      -0.258180000000000      2.822210000000000     -2.604570000000000
C      -0.072870000000000      1.302030000000000     -2.748490000000000
C       0.643210000000000      3.500450000000000     -1.553670000000000
H      -0.077650000000000      3.291270000000000     -3.594030000000000
H      -1.310950000000000      3.018690000000000     -2.308640000000000
H       0.415080000000000      4.590330000000000     -1.549930000000000
H       0.402810000000000      3.109550000000000     -0.544500000000000
C       2.138380000000000      3.337620000000000     -1.826620000000000
H      -0.811870000000000      0.894010000000000     -3.464520000000000
H       2.425720000000000      2.269260000000000     -1.791630000000000
H       2.402280000000000      3.756290000000000     -2.819730000000000
H       2.721480000000000      3.876610000000000     -1.047740000000000
C      -0.520230000000000      1.631340000000000      2.807780000000000
C      -1.237000000000000      2.192190000000000      1.777430000000000
C      -1.811710000000000      1.159710000000000      1.055890000000000
C      -1.431540000000000      0.004010000000000      1.617950000000000
N      -0.635180000000000      0.232020000000000      2.751730000000000
C      -1.762290000000000     -1.371390000000000      1.094490000000000
N      -1.220940000000000     -1.509230000000000     -0.261740000000000
C      -1.546140000000000     -2.726090000000000     -1.046550000000000
H      -1.310970000000000      3.251720000000000      1.564810000000000
H       0.059960000000000      2.166750000000000      3.544050000000000
H      -2.413610000000000      1.265840000000000      0.164460000000000
H      -2.859780000000000     -1.504570000000000      1.109530000000000
H      -1.284820000000000     -2.119530000000000      1.763020000000000
C      -3.048330000000000     -2.768400000000000     -1.388580000000000
C      -0.741810000000000     -2.698710000000000     -2.356330000000000
C      -1.162350000000000     -4.005190000000000     -0.264260000000000
H      -3.338610000000000     -1.872650000000000     -1.976070000000000
H      -3.286600000000000     -3.676970000000000     -1.984620000000000
H      -3.673020000000000     -2.811880000000000     -0.473790000000000
H       0.349380000000000     -2.705050000000000     -2.150940000000000
H      -0.979900000000000     -3.588730000000000     -2.981780000000000
H      -0.984510000000000     -1.787340000000000     -2.941850000000000
H      -0.081750000000000     -4.001460000000000     -0.007030000000000
H      -1.746000000000000     -4.098360000000000      0.675100000000000
H      -1.367440000000000     -4.915350000000000     -0.870080000000000
Na     -5.180760000000000     -5.338100000000000     13.932370000000001
C      -5.945440000000000     -7.815080000000000     15.801650000000000
C      -7.149550000000000     -5.996420000000000     16.663869999999999
O      -5.955310000000000     -6.419950000000000     16.034400000000002
C      -6.553400000000000     -8.142120000000000     14.441530000000000
C      -7.015780000000000     -6.037700000000000     18.184030000000000
H      -4.887230000000000     -8.152060000000001     15.800840000000001
H      -6.451290000000000     -8.389950000000001     16.609819999999999
H      -7.339240000000000     -4.945990000000000     16.356140000000000
H      -8.038180000000001     -6.580260000000000     16.335760000000001
H      -6.182190000000000     -5.386250000000000     18.518879999999999
H      -7.956240000000000     -5.671880000000000     18.646400000000000
H      -6.828160000000000     -7.073970000000000     18.533069999999999
H      -5.994440000000000     -7.620680000000000     13.636620000000001
H      -6.498380000000000     -9.236260000000000     14.264530000000001
H      -7.616910000000000     -7.830030000000000     14.403630000000000
C      -8.361440000000000     -4.870920000000000     12.920550000000000
C      -6.817910000000000     -3.727780000000000     11.507820000000001
O      -7.028520000000000     -4.436050000000000     12.717050000000000
C      -8.849030000000001     -5.876400000000000     11.876670000000001
C      -7.592570000000000     -2.412530000000000     11.426840000000000
H      -8.374290000000000     -5.395280000000000     13.899070000000000
H      -9.061040000000000     -4.017580000000000     13.033010000000001
H      -5.738160000000000     -3.466250000000000     11.480330000000000
H      -6.989720000000000     -4.366650000000000     10.617060000000000
H      -7.379830000000000     -1.790090000000000     12.321330000000000
H      -7.278530000000000     -1.858150000000000     10.517790000000000
H      -8.683080000000000     -2.596970000000000     11.349299999999999
H      -8.144190000000000     -6.731780000000000     11.810960000000000
H      -9.848760000000000     -6.255870000000000     12.175549999999999
H      -8.954700000000001     -5.399700000000000     10.881370000000000
Na     -4.163420000000000     -5.484180000000000     17.324629999999999
C      -2.409590000000000     -4.411800000000000     14.699479999999999
C      -3.842540000000000     -2.765200000000000     15.543410000000000
O      -3.624310000000000     -4.150750000000000     15.371770000000000
C      -2.063360000000000     -5.885130000000000     14.873730000000000
C      -4.373620000000000     -2.110530000000000     14.270049999999999
H      -2.523290000000000     -4.212090000000000     13.612340000000000
H      -1.563000000000000     -3.821220000000000     15.116330000000000
H      -4.617480000000000     -2.650470000000000     16.331420000000001
H      -2.938910000000000     -2.239590000000000     15.923990000000000
H      -5.307020000000000     -2.613240000000000     13.943379999999999
H      -4.594630000000000     -1.041040000000000     14.469180000000000
H      -3.623650000000000     -2.166390000000000     13.456189999999999
H      -2.881090000000000     -6.522340000000000     14.473900000000000
H      -1.125450000000000     -6.120370000000000     14.328180000000000
H      -1.919160000000000     -6.119490000000000     15.949140000000000
C      -1.477980000000000     -5.246050000000000     19.254899999999999
C      -2.135760000000000     -7.462330000000000     19.132880000000000
O      -2.349600000000000     -6.162650000000000     18.638559999999998
C      -1.778950000000000     -3.859570000000000     18.701670000000000
C      -3.085470000000000     -8.406599999999999     18.408190000000001
H      -1.640350000000000     -5.220190000000000     20.356140000000000
H      -0.418380000000000     -5.490160000000000     19.016880000000000
H      -1.094070000000000     -7.797880000000000     18.928609999999999
H      -2.361060000000000     -7.513180000000000     20.222010000000001
H      -2.884920000000000     -8.378200000000000     17.315740000000002
H      -2.945330000000000     -9.445190000000000     18.773209999999999
H      -4.138720000000000     -8.099510000000000     18.587360000000000
H      -2.832580000000000     -3.581470000000000     18.920480000000001
H      -1.103730000000000     -3.108230000000000     19.160799999999998
H      -1.629030000000000     -3.851810000000000     17.602160000000001
Mg      1.017710000000000     -1.252440000000000      9.015499999999999
C      -1.832670000000000     -0.075020000000000      9.961440000000000
C      -2.019910000000000     -2.344160000000000      9.259880000000001
O      -1.456860000000000     -1.068830000000000      9.025200000000000
C      -1.426450000000000     -0.385730000000000     11.402770000000000
C      -3.509340000000000     -2.382110000000000      8.945750000000000
H      -1.283040000000000      0.841930000000000      9.671630000000000
H      -2.906110000000000      0.187380000000000      9.877090000000001
H      -1.512900000000000     -3.047080000000000      8.563829999999999
H      -1.797230000000000     -2.734000000000000     10.273700000000000
H      -3.682360000000000     -2.008530000000000      7.914460000000000
H      -3.874180000000000     -3.427370000000000      9.021120000000000
H      -4.075970000000000     -1.761500000000000      9.668500000000000
H      -0.362670000000000     -0.689740000000000     11.447360000000000
H      -1.569380000000000      0.520630000000000     12.027410000000000
H      -2.055410000000000     -1.191840000000000     11.826359999999999
H       2.224800000000000     -2.394790000000000     11.063770000000000
C       2.169970000000000     -3.894930000000000      9.487710000000000
C       1.513500000000000     -2.812770000000000     10.322260000000000
C       3.325840000000000     -3.309190000000000      8.669840000000001
H       2.532180000000000     -4.686430000000000     10.175300000000000
H       1.419390000000000     -4.328140000000000      8.789809999999999
H       2.926430000000000     -2.584000000000000      7.928580000000000
H       4.036510000000000     -2.773990000000000      9.335039999999999
C       4.085480000000000     -4.408920000000000      7.939300000000000
H       0.611970000000000     -3.199230000000000     10.840030000000000
H       4.527720000000000     -5.108760000000000      8.680300000000001
H       3.408080000000000     -4.970790000000000      7.262070000000000
H       4.905900000000000     -3.961510000000000      7.339940000000000
C       2.535900000000000     -1.279530000000000      5.419050000000000
C       1.280730000000000     -1.764260000000000      5.707320000000000
C       0.620180000000000     -0.790980000000000      6.435350000000000
C       1.449110000000000      0.245540000000000      6.596280000000000
N       2.679460000000000      0.011350000000000      5.950390000000000
C       1.147350000000000      1.514320000000000      7.348840000000000
N       1.042870000000000      1.272840000000000      8.799540000000000
C       2.215260000000000      1.631200000000000      9.637400000000000
H       0.898600000000000     -2.736210000000000      5.422430000000000
H       3.304870000000000     -1.805520000000000      4.872290000000000
H      -0.387520000000000     -0.866180000000000      6.813110000000000
H       0.182700000000000      1.923340000000000      6.980230000000000
H       1.926660000000000      2.257410000000000      7.112490000000000
C       2.468260000000000      3.152870000000000      9.605040000000001
C       1.893720000000000      1.240940000000000     11.093170000000001
C       3.483570000000000      0.863020000000000      9.209180000000000
H       1.545510000000000      3.698970000000000      9.895790000000000
H       3.278300000000000      3.426150000000000     10.315060000000001
H       2.789150000000000      3.507970000000000      8.607500000000000
H       1.744660000000000      0.145950000000000     11.182119999999999
H       2.727800000000000      1.519730000000000     11.775000000000000
H       0.971980000000000      1.752710000000000     11.444879999999999
H       3.328270000000000     -0.233240000000000      9.297920000000000
H       3.766600000000000      1.096830000000000      8.164809999999999
H       4.342360000000000      1.139680000000000      9.859220000000001
