95

Mg      0.265390000000000      0.971030000000000      0.051630000000000
H       1.617440000000000      1.710720000000000     -2.537140000000000
C       3.331420000000000      1.691340000000000     -1.152650000000000
C       1.894860000000000      2.039870000000000     -1.515150000000000
C       3.601550000000000      0.178520000000000     -1.078590000000000
H       4.005010000000000      2.167810000000000     -1.893830000000000
H       3.547540000000000      2.118430000000000     -0.149350000000000
H       4.675810000000000      0.040790000000000     -0.827070000000000
H       2.998760000000000     -0.281400000000000     -0.266810000000000
C       3.310240000000000     -0.561240000000000     -2.382750000000000
H       1.691460000000000      3.123110000000000     -1.391020000000000
H       2.225020000000000     -0.532450000000000     -2.613920000000000
H       3.882900000000000     -0.111160000000000     -3.219890000000000
H       3.606230000000000     -1.626750000000000     -2.276730000000000
C       1.608750000000000     -0.855140000000000      2.276660000000000
C       1.077720000000000     -1.841960000000000      3.091560000000000
C      -0.264690000000000     -1.953380000000000      2.764490000000000
C      -0.492440000000000     -1.044400000000000      1.758170000000000
N       0.640400000000000     -0.383100000000000      1.478140000000000
C      -1.798870000000000     -0.758520000000000      1.045050000000000
N      -1.554530000000000      0.092750000000000     -0.137010000000000
C      -2.664570000000000      0.482920000000000     -1.025450000000000
H       1.605180000000000     -2.412430000000000      3.842760000000000
H       2.634600000000000     -0.506390000000000      2.277380000000000
H      -0.991310000000000     -2.625080000000000      3.200880000000000
H      -2.468130000000000     -0.248650000000000      1.768460000000000
H      -2.238560000000000     -1.719380000000000      0.721460000000000
C      -3.782640000000000      1.190220000000000     -0.237820000000000
C      -2.127240000000000      1.446420000000000     -2.100230000000000
C      -3.220960000000000     -0.770630000000000     -1.728180000000000
H      -3.385010000000000      2.092300000000000      0.274830000000000
H      -4.600680000000000      1.503280000000000     -0.922210000000000
H      -4.225350000000000      0.513220000000000      0.521240000000000
H      -1.308890000000000      0.971860000000000     -2.683530000000000
H      -2.937270000000000      1.730350000000000     -2.809370000000000
H      -1.732240000000000      2.375670000000000     -1.636750000000000
H      -2.415540000000000     -1.273020000000000     -2.308040000000000
H      -3.627450000000000     -1.497270000000000     -0.996420000000000
H      -4.043800000000000     -0.502930000000000     -2.423810000000000
Na      2.545420000000000      1.098030000000000      4.266340000000000
C       0.566570000000000      2.539900000000000      6.425950000000000
C       2.775920000000000      2.916310000000000      6.960000000000000
O       1.821900000000000      1.928460000000000      6.633540000000000
C      -0.458870000000000      1.469060000000000      6.081940000000000
C       4.130970000000000      2.253520000000000      7.166210000000000
H       0.220560000000000      3.057620000000000      7.349750000000000
H       0.611400000000000      3.252840000000000      5.571760000000000
H       2.881950000000000      3.653810000000000      6.131930000000000
H       2.501280000000000      3.431280000000000      7.908640000000000
H       4.449420000000000      1.735660000000000      6.236540000000000
H       4.889410000000000      3.022400000000000      7.425800000000000
H       4.073510000000000      1.513500000000000      7.992570000000000
H      -0.541330000000000      0.737980000000000      6.914240000000000
H      -1.451380000000000      1.940050000000000      5.917780000000000
H      -0.157160000000000      0.932910000000000      5.156640000000000
Na      1.520390000000000      0.588700000000000      8.881610000000000
Mg     -3.980660000000000      4.664920000000000      5.444340000000000
H      -6.849020000000000      5.095490000000000      4.418390000000000
C      -7.240050000000000      4.002030000000000      6.281030000000000
C      -6.467130000000000      4.223890000000000      4.987720000000000
C      -7.086120000000000      5.150710000000000      7.291380000000000
H      -8.311170000000001      3.848470000000000      6.034040000000000
H      -6.852700000000000      3.076930000000000      6.760450000000000
H      -7.687640000000000      4.892630000000000      8.190149999999999
H      -6.024360000000000      5.245690000000000      7.603350000000000
C      -7.565620000000000      6.501220000000000      6.761380000000000
H      -6.500630000000000      3.320360000000000      4.345350000000000
H      -6.925380000000000      6.843260000000000      5.921880000000000
H      -8.620380000000001      6.433360000000000      6.422340000000000
H      -7.496790000000000      7.259230000000000      7.570240000000000
C      -3.239820000000000      4.712460000000000      8.532170000000001
C      -2.149310000000000      5.233190000000000      9.209000000000000
C      -1.325530000000000      5.817930000000000      8.259100000000000
C      -1.957960000000000      5.647150000000000      7.047610000000000
N      -3.100380000000000      4.968830000000000      7.221750000000000
C      -1.490570000000000      6.112040000000000      5.681160000000000
N      -2.580400000000000      5.940050000000000      4.696760000000000
C      -2.395600000000000      6.323410000000000      3.285820000000000
H      -1.970940000000000      5.189090000000000     10.274730000000000
H      -4.073890000000000      4.180030000000000      8.971000000000000
H      -0.383650000000000      6.319720000000000      8.432960000000000
H      -0.599950000000000      5.511870000000000      5.404740000000000
H      -1.224710000000000      7.183880000000000      5.748270000000000
C      -1.196840000000000      5.584700000000000      2.663960000000000
C      -3.670110000000000      5.950850000000000      2.506110000000000
C      -2.191640000000000      7.847950000000000      3.187130000000000
H      -1.340500000000000      4.485250000000000      2.734110000000000
H      -1.085580000000000      5.860070000000000      1.592760000000000
H      -0.251200000000000      5.855180000000000      3.176970000000000
H      -4.558750000000000      6.463110000000000      2.934450000000000
H      -3.577950000000000      6.251960000000000      1.438590000000000
H      -3.848570000000000      4.854830000000000      2.542850000000000
H      -3.061390000000000      8.380330000000001      3.631510000000000
H      -1.275510000000000      8.168640000000000      3.723220000000000
H      -2.089750000000000      8.165540000000000      2.127600000000000
