170

Mg     -0.163230000000000     -0.203610000000000     -0.382560000000000
C       3.270430000000000     -0.139890000000000     -1.011880000000000
C       2.308900000000000      2.018640000000000     -0.671830000000000
O       2.176290000000000      0.617020000000000     -0.528490000000000
C       4.560040000000000      0.079130000000000     -0.227560000000000
C       2.376430000000000      2.482100000000000     -2.124750000000000
H       2.987920000000000     -1.207960000000000     -0.889040000000000
H       3.434230000000000      0.003760000000000     -2.096730000000000
H       1.387970000000000      2.464640000000000     -0.246700000000000
H       3.137880000000000      2.423510000000000     -0.056880000000000
H       1.529210000000000      2.057580000000000     -2.702080000000000
H       2.311530000000000      3.589860000000000     -2.156430000000000
H       3.335420000000000      2.180590000000000     -2.589760000000000
H       4.391070000000000     -0.085990000000000      0.855480000000000
H       5.324800000000000     -0.642510000000000     -0.584140000000000
H       4.947670000000000      1.103480000000000     -0.393060000000000
H       0.718970000000000     -2.406150000000000     -2.149970000000000
C       0.632380000000000     -0.792750000000000     -3.637720000000000
C       0.090820000000000     -1.537960000000000     -2.437540000000000
C       0.621400000000000     -1.711230000000000     -4.846930000000000
H       0.005460000000000      0.101400000000000     -3.833580000000000
H       1.665000000000000     -0.455290000000000     -3.423740000000000
H       1.249690000000000     -2.603140000000000     -4.632400000000000
H      -0.422340000000000     -2.039920000000000     -5.043580000000000
C       1.164770000000000     -0.995030000000000     -6.072660000000000
H      -0.976540000000000     -1.814750000000000     -2.561760000000000
H       0.540320000000000     -0.105880000000000     -6.304640000000000
H       2.212360000000000     -0.671110000000000     -5.893530000000000
H       1.142160000000000     -1.689940000000000     -6.936180000000000
C      -1.885390000000000     -0.889740000000000      4.113580000000000
C      -3.126770000000000     -0.471380000000000      3.687350000000000
C      -2.914450000000000      0.541680000000000      2.764720000000000
C      -1.596120000000000      0.682160000000000      2.651090000000000
N      -0.966170000000000     -0.220320000000000      3.522070000000000
C      -0.812520000000000      1.673830000000000      1.811940000000000
N      -0.894360000000000      1.511230000000000      0.348520000000000
C      -2.011990000000000      1.972600000000000     -0.486910000000000
H      -4.079760000000000     -0.855550000000000      4.029330000000000
H      -1.677150000000000     -1.662920000000000      4.838840000000000
H      -3.684760000000000      1.102060000000000      2.265580000000000
H       0.257310000000000      1.515080000000000      2.068110000000000
H      -1.047730000000000      2.709730000000000      2.111790000000000
C      -2.688790000000000      3.201010000000000      0.124000000000000
C      -1.426730000000000      2.368870000000000     -1.857260000000000
C      -3.013960000000000      0.824680000000000     -0.729320000000000
H      -1.931920000000000      4.002450000000000      0.272360000000000
H      -3.486180000000000      3.575000000000000     -0.547130000000000
H      -3.142570000000000      2.954430000000000      1.100930000000000
H      -0.911750000000000      1.504910000000000     -2.323310000000000
H      -2.225240000000000      2.705380000000000     -2.553310000000000
H      -0.681970000000000      3.186130000000000     -1.751360000000000
H      -2.530860000000000     -0.020140000000000     -1.269040000000000
H      -3.420850000000000      0.416280000000000      0.205830000000000
H      -3.865320000000000      1.179610000000000     -1.348480000000000
C      -0.038860000000000     -2.674770000000000      1.580210000000000
C       1.747140000000000     -1.227970000000000      2.112470000000000
O       0.853860000000000     -1.681600000000000      1.115330000000000
C      -1.411270000000000     -2.490450000000000      0.928450000000000
C       2.862990000000000     -2.227220000000000      2.341470000000000
H       0.357910000000000     -3.667180000000000      1.286640000000000
H      -0.184470000000000     -2.654690000000000      2.681640000000000
H       2.188410000000000     -0.271590000000000      1.768380000000000
H       1.249910000000000     -0.980090000000000      3.065930000000000
H       3.384740000000000     -2.433500000000000      1.384420000000000
H       3.582200000000000     -1.807260000000000      3.074340000000000
H       2.438400000000000     -3.168080000000000      2.745960000000000
H      -1.854830000000000     -1.514830000000000      1.196560000000000
H      -1.338430000000000     -2.536160000000000     -0.176500000000000
H      -2.101010000000000     -3.288390000000000      1.272170000000000
Na     -1.933910000000000      8.718340000000000     -3.979900000000000
C       0.971810000000000      9.312099999999999     -5.157660000000000
C       0.869040000000000      6.986970000000000     -4.859320000000000
O       0.464810000000000      8.251810000000001     -4.370360000000000
C       0.011410000000000      9.654290000000000     -6.292560000000000
C       2.187210000000000      6.545960000000000     -4.227590000000000
H       1.069500000000000     10.204530000000000     -4.503800000000000
H       1.992330000000000      9.105050000000000     -5.551250000000000
H       0.084110000000000      6.251100000000000     -4.582500000000000
H       0.941470000000000      6.959770000000000     -5.969240000000000
H       2.089440000000000      6.486730000000000     -3.123700000000000
H       2.461060000000000      5.540820000000000     -4.611070000000000
H       3.000500000000000      7.256530000000000     -4.481790000000000
H      -0.982420000000000      9.932790000000001     -5.883620000000000
H       0.412890000000000     10.511730000000000     -6.871730000000000
H      -0.108500000000000      8.789890000000000     -6.976890000000000
C      -2.830150000000000      6.809410000000000     -6.593100000000000
C      -4.728080000000000      7.484500000000000     -5.318010000000000
O      -3.316020000000000      7.408420000000000     -5.405100000000000
C      -3.185520000000000      7.582440000000000     -7.863620000000000
C      -5.412850000000000      6.118190000000000     -5.285420000000000
H      -1.722690000000000      6.813810000000000     -6.515730000000000
H      -3.117750000000000      5.740420000000000     -6.663110000000000
H      -4.956350000000000      7.980790000000000     -4.350380000000000
H      -5.157160000000000      8.146910000000000     -6.098100000000000
H      -4.973310000000000      5.491410000000000     -4.481100000000000
H      -6.495910000000000      6.256080000000000     -5.084790000000000
H      -5.314000000000000      5.600390000000000     -6.260710000000000
H      -2.858650000000000      8.639690000000000     -7.772370000000000
H      -2.667210000000000      7.118330000000000     -8.728890000000000
H      -4.275230000000000      7.542460000000000     -8.063660000000000
Na      0.976210000000000      8.259460000000001     -2.035000000000000
C      -1.934950000000000      9.539650000000000     -1.070360000000000
C      -1.950590000000000      7.198220000000000     -1.047420000000000
O      -1.409370000000000      8.359990000000000     -1.643490000000000
C      -1.061380000000000     10.717079999999999     -1.486510000000000
C      -3.343540000000000      6.877580000000000     -1.585240000000000
H      -2.962420000000000      9.724670000000000     -1.450490000000000
H      -1.933240000000000      9.502910000000000      0.042220000000000
H      -1.282440000000000      6.350800000000000     -1.313160000000000
H      -1.947300000000000      7.253750000000000      0.063570000000000
H      -3.310530000000000      6.765140000000000     -2.688390000000000
H      -3.700220000000000      5.926090000000000     -1.141380000000000
H      -4.064780000000000      7.676170000000000     -1.317550000000000
H      -1.026050000000000     10.798840000000000     -2.594090000000000
H      -1.474580000000000     11.659610000000001     -1.070540000000000
H      -0.028550000000000     10.581690000000000     -1.103100000000000
C       2.332330000000000      9.045140000000000      0.884130000000000
C       3.397670000000000     10.222310000000000     -0.801880000000000
O       2.328490000000000      9.364290000000000     -0.486130000000000
C       1.172630000000000      8.095030000000000      1.152520000000000
C       3.317160000000000     10.551240000000000     -2.286710000000000
H       3.275530000000000      8.527250000000000      1.170230000000000
H       2.179920000000000      9.959040000000000      1.501000000000000
H       3.322020000000000     11.176399999999999     -0.233190000000000
H       4.374470000000000      9.723870000000000     -0.609850000000000
H       2.350520000000000     11.051290000000000     -2.510530000000000
H       4.147900000000000     11.228180000000000     -2.575020000000000
H       3.385780000000000      9.618690000000001     -2.887930000000000
H       1.290740000000000      7.167960000000000      0.550780000000000
H       1.137500000000000      7.825900000000000      2.228400000000000
H       0.215040000000000      8.581400000000000      0.873540000000000
Mg     -2.451180000000000     15.839880000000001     -6.482670000000000
H      -1.437030000000000     15.627920000000000     -9.373880000000000
C       0.148410000000000     16.849440000000001     -8.471980000000000
C      -1.315620000000000     16.489129999999999     -8.685980000000001
C       0.954110000000000     15.746490000000000     -7.765800000000000
H       0.603590000000000     17.088259999999998     -9.455640000000001
H       0.190520000000000     17.758790000000001     -7.833970000000000
H       2.001280000000000     16.106150000000000     -7.664350000000000
H       0.550090000000000     15.571180000000000     -6.746200000000000
C       0.970630000000000     14.419180000000001     -8.522600000000001
H      -1.885660000000000     17.356929999999998     -9.075989999999999
H      -0.046060000000000     13.975730000000000     -8.559600000000000
H       1.351640000000000     14.565410000000000     -9.554840000000000
H       1.633520000000000     13.702100000000000     -7.993410000000000
C      -0.498500000000000     15.885320000000000     -3.977700000000000
C      -0.596290000000000     15.302930000000000     -2.724810000000000
C      -1.789400000000000     14.596710000000000     -2.699100000000000
C      -2.357750000000000     14.761469999999999     -3.942810000000000
N      -1.580710000000000     15.549040000000000     -4.698240000000000
C      -3.668190000000000     14.187820000000000     -4.449270000000000
N      -3.776790000000000     14.405700000000000     -5.907730000000000
C      -4.952880000000000     13.932810000000000     -6.659720000000000
H       0.118130000000000     15.387090000000001     -1.917230000000000
H       0.307160000000000     16.515139999999999     -4.332430000000000
H      -2.189550000000000     14.022140000000000     -1.875600000000000
H      -4.492100000000000     14.693669999999999     -3.904970000000000
H      -3.679080000000000     13.101670000000000     -4.239720000000000
C      -6.252770000000000     14.523860000000001     -6.084620000000000
C      -4.808980000000000     14.379810000000001     -8.126260000000000
C      -5.004960000000000     12.392820000000000     -6.621190000000000
H      -6.218430000000000     15.634050000000000     -6.110860000000000
H      -7.129110000000000     14.182960000000000     -6.677510000000000
H      -6.411850000000000     14.195819999999999     -5.036980000000000
H      -3.874510000000000     13.976030000000000     -8.572380000000001
H      -5.668230000000000     14.015350000000000     -8.732640000000000
H      -4.779010000000000     15.488110000000001     -8.199540000000001
H      -4.067710000000000     11.967079999999999     -7.042710000000000
H      -5.122310000000000     12.018409999999999     -5.584090000000000
H      -5.862500000000000     12.011419999999999     -7.215210000000000
