140

Mg      0.222670000000000      0.466240000000000     -0.859270000000000
H       1.806250000000000      2.973510000000000     -0.188660000000000
C      -0.095090000000000      3.847730000000000     -0.865600000000000
C       1.048440000000000      2.850360000000000     -0.988820000000000
C      -0.939530000000000      3.662120000000000      0.406400000000000
H       0.325690000000000      4.873650000000000     -0.902850000000000
H      -0.769370000000000      3.709690000000000     -1.738530000000000
H      -1.730770000000000      4.443240000000000      0.402300000000000
H      -1.437400000000000      2.669320000000000      0.394960000000000
C      -0.137420000000000      3.792300000000000      1.699910000000000
H       1.535290000000000      2.914180000000000     -1.983280000000000
H       0.597680000000000      2.965520000000000      1.789260000000000
H       0.391300000000000      4.767490000000000      1.732460000000000
H      -0.826780000000000      3.728080000000000      2.568560000000000
C      -2.909370000000000      0.216590000000000     -0.382290000000000
C      -3.685450000000000     -0.838600000000000      0.068910000000000
C      -2.821560000000000     -1.890270000000000      0.333450000000000
C      -1.556570000000000     -1.427730000000000      0.050690000000000
N      -1.622000000000000     -0.163630000000000     -0.390190000000000
C      -0.244960000000000     -2.179920000000000      0.171070000000000
N       0.887780000000000     -1.243000000000000      0.016920000000000
C       2.279780000000000     -1.718360000000000      0.119510000000000
H      -4.760230000000000     -0.845320000000000      0.186530000000000
H      -3.267750000000000      1.191530000000000     -0.688640000000000
H      -3.082270000000000     -2.873970000000000      0.698880000000000
H      -0.230750000000000     -2.956780000000000     -0.620870000000000
H      -0.200440000000000     -2.648330000000000      1.171620000000000
C       2.555260000000000     -2.849700000000000     -0.887840000000000
C       3.228250000000000     -0.542310000000000     -0.179880000000000
C       2.549430000000000     -2.208040000000000      1.555140000000000
H       2.360050000000000     -2.500920000000000     -1.924480000000000
H       3.614250000000000     -3.180500000000000     -0.819300000000000
H       1.917120000000000     -3.733380000000000     -0.681160000000000
H       3.050850000000000      0.298330000000000      0.525230000000000
H       4.289990000000000     -0.861020000000000     -0.077450000000000
H       3.078270000000000     -0.166780000000000     -1.214650000000000
H       2.361210000000000     -1.387020000000000      2.281480000000000
H       1.893520000000000     -3.060710000000000      1.817890000000000
H       3.601060000000000     -2.546360000000000      1.668550000000000
Na      2.138010000000000     -9.389210000000000      6.129630000000000
C       4.158040000000000    -11.657980000000000      7.129820000000000
C       3.836860000000000    -12.101789999999999      4.848690000000000
O       3.251100000000000    -11.622970000000000      6.044570000000000
C       4.943540000000000    -10.353740000000000      7.222180000000000
C       3.632360000000000    -13.607130000000000      4.699230000000000
H       3.567520000000000    -11.776260000000001      8.062980000000000
H       4.846500000000000    -12.532019999999999      7.088250000000000
H       3.334170000000000    -11.593170000000001      3.998460000000000
H       4.916880000000000    -11.846230000000000      4.767790000000000
H       2.550610000000000    -13.854130000000000      4.693180000000000
H       4.075930000000000    -13.945410000000001      3.740020000000000
H       4.124350000000000    -14.153710000000000      5.530020000000000
H       4.249020000000000     -9.495410000000000      7.336310000000000
H       5.617230000000000    -10.388000000000000      8.103460000000000
H       5.558280000000000    -10.202859999999999      6.311560000000000
C       4.349150000000000     -8.158340000000001      3.886840000000000
C       2.557530000000000     -6.637300000000000      4.280760000000000
O       3.070840000000000     -7.945960000000000      4.459190000000000
C       5.452380000000000     -7.298210000000000      4.505050000000000
C       2.305500000000000     -6.274310000000000      2.817700000000000
H       4.614250000000000     -9.216020000000000      4.095460000000000
H       4.325420000000000     -8.071600000000000      2.781240000000000
H       1.570800000000000     -6.614500000000000      4.791170000000000
H       3.174480000000000     -5.874050000000000      4.798430000000000
H       1.664950000000000     -7.045380000000000      2.341910000000000
H       1.785850000000000     -5.295760000000000      2.769460000000000
H       3.258480000000000     -6.178840000000000      2.259030000000000
H       5.469030000000000     -7.431530000000000      5.607260000000000
H       6.433560000000000     -7.610130000000000      4.089720000000000
H       5.309710000000000     -6.226630000000000      4.259070000000000
Na      1.175080000000000    -12.811460000000000      6.274990000000000
C      -0.631460000000000    -10.120749999999999      7.078470000000000
C      -0.668660000000000    -10.568230000000000      4.781380000000000
O       0.070120000000000    -10.669779999999999      5.981990000000000
C       0.036650000000000    -10.584239999999999      8.366870000000000
C      -0.578240000000000     -9.169980000000001      4.173810000000000
H      -0.582660000000000     -9.011189999999999      7.046890000000000
H      -1.690480000000000    -10.462070000000001      7.113610000000000
H      -0.218350000000000    -11.281260000000000      4.057790000000000
H      -1.726710000000000    -10.888100000000000      4.908050000000000
H       0.483490000000000     -8.896300000000000      4.004340000000000
H      -1.110370000000000     -9.155659999999999      3.199580000000000
H      -1.049470000000000     -8.418870000000000      4.840130000000000
H       1.101640000000000    -10.267989999999999      8.383430000000001
H      -0.482690000000000    -10.141560000000000      9.242720000000000
H      -0.010620000000000    -11.690410000000000      8.445610000000000
C      -1.184660000000000    -14.791639999999999      7.505530000000000
C       0.749610000000000    -15.053110000000000      8.749540000000000
O       0.119070000000000    -14.313310000000000      7.732400000000000
C      -1.800610000000000    -13.975170000000000      6.377360000000000
C       2.140130000000000    -14.471620000000000      8.965940000000000
H      -1.168230000000000    -15.858969999999999      7.188790000000000
H      -1.815720000000000    -14.658049999999999      8.412710000000001
H       0.188230000000000    -14.968800000000000      9.707269999999999
H       0.863090000000000    -16.119560000000000      8.450559999999999
H       2.060410000000000    -13.404930000000000      9.266360000000001
H       2.669240000000000    -15.032140000000000      9.764360000000000
H       2.730820000000000    -14.536429999999999      8.026470000000000
H      -1.194390000000000    -14.083769999999999      5.452120000000000
H      -2.835340000000000    -14.320810000000000      6.174560000000000
H      -1.830000000000000    -12.902720000000000      6.660920000000000
Mg      0.222780000000000    -11.312770000000000      0.131160000000000
H      -2.610420000000000    -12.663950000000000      0.641760000000000
C      -2.834570000000000    -12.135100000000000     -1.471390000000000
C      -2.294370000000000    -11.877689999999999     -0.073710000000000
C      -2.374200000000000    -13.481120000000001     -2.047590000000000
H      -3.943240000000000    -12.126239999999999     -1.416420000000000
H      -2.511330000000000    -11.314810000000000     -2.147050000000000
H      -2.699890000000000    -14.310980000000001     -1.383310000000000
H      -2.865130000000000    -13.611240000000000     -3.035240000000000
C      -0.861000000000000    -13.562500000000000     -2.258670000000000
H      -2.620620000000000    -10.879720000000001      0.290120000000000
H      -0.322620000000000    -13.515810000000000     -1.290600000000000
H      -0.611960000000000    -14.527930000000000     -2.749560000000000
H      -0.513090000000000    -12.735830000000000     -2.914420000000000
C       1.970000000000000    -13.834700000000000      0.956900000000000
C       3.315930000000000    -14.117889999999999      0.791960000000000
C       3.877610000000000    -13.039260000000001      0.125680000000000
C       2.847090000000000    -12.154890000000000     -0.105950000000000
N       1.708490000000000    -12.635999999999999      0.411640000000000
C       2.911710000000000    -10.816940000000001     -0.818580000000000
N       1.541070000000000    -10.320309999999999     -1.064510000000000
C       1.307280000000000     -9.056170000000000     -1.784460000000000
H       3.832740000000000    -15.008630000000000      1.122540000000000
H       1.236140000000000    -14.462920000000000      1.444740000000000
H       4.911710000000000    -12.921120000000000     -0.167830000000000
H       3.485100000000000    -10.114369999999999     -0.178930000000000
H       3.427950000000000    -10.962300000000001     -1.786250000000000
C       1.808670000000000     -9.183529999999999     -3.236600000000000
C      -0.207480000000000     -8.786049999999999     -1.815790000000000
C       2.009920000000000     -7.882850000000000     -1.079300000000000
H       1.296910000000000    -10.029690000000000     -3.746140000000000
H       1.602210000000000     -8.253600000000000     -3.808180000000000
H       2.902070000000000     -9.363470000000000     -3.273700000000000
H      -0.611310000000000     -8.683600000000000     -0.785830000000000
H      -0.427150000000000     -7.847340000000000     -2.371550000000000
H      -0.742940000000000     -9.618440000000000     -2.319750000000000
H       1.647690000000000     -7.789910000000000     -0.034120000000000
H       3.109790000000000     -8.027060000000001     -1.064790000000000
H       1.803460000000000     -6.929340000000000     -1.612090000000000
