170

Mg     -0.026310000000000     -0.763000000000000      0.088970000000000
C       1.506060000000000      2.602900000000000     -0.580430000000000
C       1.000420000000000      1.624330000000000     -2.607110000000000
O       1.509670000000000      1.390460000000000     -1.309320000000000
C       2.424590000000000      2.477690000000000      0.625750000000000
C       0.914050000000000      0.308880000000000     -3.370000000000000
H       1.889450000000000      3.454160000000000     -1.185900000000000
H       0.480600000000000      2.835320000000000     -0.226070000000000
H      -0.014400000000000      2.072610000000000     -2.566170000000000
H       1.673960000000000      2.301180000000000     -3.173980000000000
H       0.225850000000000     -0.395220000000000     -2.860260000000000
H       0.531950000000000      0.495610000000000     -4.395990000000000
H       1.919710000000000     -0.155240000000000     -3.440200000000000
H       3.457810000000000      2.243010000000000      0.299160000000000
H       2.421510000000000      3.425650000000000      1.202660000000000
H       2.086350000000000      1.672670000000000      1.293090000000000
H       1.855970000000000     -2.262060000000000     -2.000690000000000
C       0.266470000000000     -3.496320000000000     -1.100130000000000
C       1.392410000000000     -2.472660000000000     -1.017430000000000
C      -0.845470000000000     -3.043710000000000     -2.056610000000000
H       0.704360000000000     -4.451770000000000     -1.452680000000000
H      -0.166680000000000     -3.645120000000000     -0.085700000000000
H      -1.330490000000000     -2.118020000000000     -1.674640000000000
H      -0.415570000000000     -2.831310000000000     -3.058570000000000
C      -1.904570000000000     -4.133190000000000     -2.208790000000000
H       2.153210000000000     -2.764630000000000     -0.265180000000000
H      -1.438770000000000     -5.059180000000000     -2.609140000000000
H      -2.378580000000000     -4.358450000000000     -1.229880000000000
H      -2.691090000000000     -3.800290000000000     -2.918690000000000
C      -2.093520000000000      0.957470000000000     -1.576090000000000
C      -2.837350000000000      2.070310000000000     -1.225650000000000
C      -2.546410000000000      2.342990000000000      0.102930000000000
C      -1.629320000000000      1.398790000000000      0.501580000000000
N      -1.358830000000000      0.578330000000000     -0.522930000000000
C      -0.998750000000000      1.221420000000000      1.871280000000000
N       0.159990000000000      0.300810000000000      1.805330000000000
C       0.666410000000000     -0.314250000000000      3.048590000000000
H      -3.514450000000000      2.617510000000000     -1.864960000000000
H      -2.082040000000000      0.471740000000000     -2.545810000000000
H      -2.948190000000000      3.143340000000000      0.707490000000000
H      -0.643800000000000      2.203570000000000      2.243740000000000
H      -1.791770000000000      0.828900000000000      2.537140000000000
C      -0.307740000000000     -1.384390000000000      3.572840000000000
C       2.016500000000000     -0.995980000000000      2.744850000000000
C       0.898180000000000      0.771770000000000      4.118400000000000
H      -0.435650000000000     -2.195380000000000      2.823650000000000
H       0.087360000000000     -1.834280000000000      4.510140000000000
H      -1.301970000000000     -0.954500000000000      3.802500000000000
H       2.764660000000000     -0.265260000000000      2.372620000000000
H       2.433790000000000     -1.470620000000000      3.660570000000000
H       1.893370000000000     -1.786030000000000      1.974920000000000
H       1.591380000000000      1.550100000000000      3.730840000000000
H      -0.056670000000000      1.262730000000000      4.398550000000000
H       1.340150000000000      0.334380000000000      5.038260000000000
Na      0.375180000000000      8.447340000000001      6.950790000000000
C      -0.150680000000000      5.616270000000000      5.566290000000000
C       2.004690000000000      6.256160000000000      4.898480000000000
O       0.700350000000000      6.694130000000000      5.227940000000000
C      -0.077510000000000      5.315600000000000      7.059930000000000
C       2.127130000000000      5.962530000000000      3.405280000000000
H      -1.191820000000000      5.915850000000000      5.322020000000000
H       0.055580000000000      4.700760000000000      4.967150000000000
H       2.710520000000000      7.074930000000000      5.155000000000000
H       2.324420000000000      5.373640000000000      5.495820000000000
H       1.893750000000000      6.870020000000000      2.810580000000000
H       3.166930000000000      5.648830000000000      3.176130000000000
H       1.436550000000000      5.146680000000000      3.107820000000000
H      -0.358260000000000      6.215430000000000      7.646450000000000
H      -0.780750000000000      4.493470000000000      7.306910000000000
H       0.947270000000000      5.003090000000000      7.346250000000000
C       3.001060000000000      7.324870000000000      8.721830000000001
C       2.190990000000000      9.395200000000001      9.585110000000000
O       2.151990000000000      8.443560000000000      8.535880000000001
C       2.639180000000000      6.470340000000000      9.937120000000000
C       3.556200000000000     10.060990000000000      9.756240000000000
H       2.869710000000000      6.679750000000000      7.827810000000000
H       4.071550000000000      7.615290000000000      8.722600000000000
H       1.475120000000000     10.198650000000001      9.307449999999999
H       1.810110000000000      8.976550000000000     10.539479999999999
H       3.896130000000000     10.485810000000001      8.788370000000000
H       3.473450000000000     10.879930000000000     10.501239999999999
H       4.307160000000000      9.337090000000000     10.132160000000001
H       1.570770000000000      6.171780000000000      9.890490000000000
H       3.268630000000000      5.555660000000000      9.939629999999999
H       2.835670000000000      7.016210000000000     10.881819999999999
Na      0.013130000000000      8.139519999999999      3.450390000000000
C      -1.192690000000000     10.526540000000001      5.424810000000000
C       1.042280000000000     10.910340000000000      4.850030000000000
O       0.040280000000000      9.937920000000000      5.067900000000000
C      -2.292800000000000      9.481579999999999      5.288940000000000
C       1.626500000000000     11.435409999999999      6.160610000000000
H      -1.162430000000000     10.852620000000000      6.484540000000000
H      -1.460360000000000     11.378810000000000      4.760300000000000
H       1.862850000000000     10.413570000000000      4.289290000000000
H       0.687910000000000     11.741920000000000      4.201730000000000
H       2.027510000000000     10.594810000000001      6.763390000000000
H       2.454830000000000     12.140120000000000      5.937590000000000
H       0.858030000000000     11.976710000000001      6.749430000000000
H      -2.072530000000000      8.605270000000001      5.935490000000000
H      -3.267330000000000      9.917030000000000      5.595000000000000
H      -2.369420000000000      9.140810000000000      4.235390000000000
C      -1.663480000000000      9.372780000000001      0.871830000000000
C      -2.436300000000000      7.241260000000000      1.344240000000000
O      -1.596890000000000      8.288500000000001      1.766010000000000
C      -0.714870000000000     10.455800000000000      1.368640000000000
C      -2.341500000000000      6.117810000000000      2.368030000000000
H      -1.335840000000000      9.068910000000001     -0.147950000000000
H      -2.691290000000000      9.799360000000000      0.846580000000000
H      -3.496790000000000      7.577080000000000      1.298710000000000
H      -2.105500000000000      6.841330000000000      0.359310000000000
H      -2.665220000000000      6.487560000000000      3.364490000000000
H      -2.994230000000000      5.271970000000000      2.070020000000000
H      -1.292740000000000      5.756670000000000      2.442580000000000
H       0.324640000000000     10.064340000000000      1.408380000000000
H      -0.744980000000000     11.333650000000000      0.690610000000000
H      -1.012870000000000     10.779680000000001      2.387360000000000
Mg      0.302300000000000     16.377839999999999     10.265710000000000
C      -2.925060000000000     15.339969999999999     12.133910000000000
C      -3.554000000000000     16.387799999999999     10.178360000000000
O      -2.651440000000000     16.420829999999999     11.264609999999999
C      -2.279770000000000     15.602399999999999     13.485730000000000
C      -3.189240000000000     17.478999999999999      9.181889999999999
H      -4.016470000000000     15.218859999999999     12.319120000000000
H      -2.510610000000000     14.398160000000001     11.715660000000000
H      -3.513830000000000     15.409170000000000      9.651650000000000
H      -4.591010000000000     16.581720000000001     10.529080000000000
H      -2.162530000000000     17.321449999999999      8.794060000000000
H      -3.899210000000000     17.459830000000000      8.328049999999999
H      -3.242610000000000     18.473649999999999      9.671910000000000
H      -2.683070000000000     16.536899999999999     13.927149999999999
H      -2.480470000000000     14.753040000000000     14.171310000000000
H      -1.188860000000000     15.710160000000000     13.379640000000000
H      -0.835190000000000     19.445399999999999      9.760199999999999
C       1.063690000000000     18.904599999999999      8.811230000000000
C       0.110180000000000     18.918330000000001      9.999639999999999
C       0.438830000000000     18.199999999999999      7.600600000000000
H       1.308040000000000     19.956050000000001      8.553970000000000
H       1.998690000000000     18.375270000000000      9.100310000000000
H       0.244530000000000     17.131170000000001      7.838130000000000
H      -0.525070000000000     18.686599999999999      7.338810000000000
C       1.363150000000000     18.278490000000001      6.388830000000000
H       0.593260000000000     19.378110000000000     10.886110000000000
H       1.548370000000000     19.341200000000001      6.122480000000000
H       2.333090000000000     17.781860000000002      6.603970000000000
H       0.887800000000000     17.774950000000000      5.520690000000000
C      -1.386920000000000     14.451480000000000      8.402590000000000
C      -1.640680000000000     13.094450000000000      8.482950000000001
C      -0.975630000000000     12.625180000000000      9.606710000000000
C      -0.365940000000000     13.722009999999999     10.177500000000000
N      -0.616910000000000     14.810499999999999      9.440750000000000
C       0.489930000000000     13.775530000000000     11.432630000000000
N       0.690260000000000     15.180230000000000     11.866220000000000
C       1.799520000000000     15.503620000000000     12.784020000000000
H      -2.242370000000000     12.514810000000001      7.797730000000000
H      -1.751670000000000     15.129280000000000      7.641000000000000
H      -0.954130000000000     11.607630000000000      9.971190000000000
H      -0.032650000000000     13.236890000000001     12.249380000000000
H       1.448170000000000     13.267950000000001     11.204789999999999
C       3.150290000000000     15.424910000000001     12.053350000000000
C       1.604630000000000     16.946780000000000     13.292719999999999
C       1.785460000000000     14.554230000000000     13.999430000000000
H       3.168930000000000     16.137119999999999     11.200240000000001
H       3.977980000000000     15.688770000000000     12.747610000000000
H       3.344380000000000     14.405099999999999     11.667070000000001
H       0.642310000000000     17.056920000000002     13.835260000000000
H       2.420710000000000     17.231980000000000     13.992870000000000
H       1.607560000000000     17.666709999999998     12.447450000000000
H       0.804720000000000     14.611610000000001     14.520460000000000
H       1.954970000000000     13.503000000000000     13.687250000000001
H       2.582490000000000     14.827669999999999     14.723170000000000
