95

Mg      0.340690000000000     -0.667050000000000      0.206280000000000
H       0.243370000000000     -1.372880000000000      3.118410000000000
C       0.730930000000000      0.759940000000000      3.262710000000000
C       0.880070000000000     -0.608170000000000      2.628480000000000
C       1.212920000000000      0.698370000000000      4.706590000000000
H       1.333000000000000      1.496460000000000      2.686890000000000
H      -0.337930000000000      1.064860000000000      3.219850000000000
H       0.607680000000000     -0.051260000000000      5.261540000000000
H       2.279550000000000      0.384070000000000      4.721960000000000
C       1.082070000000000      2.050540000000000      5.389990000000000
H       1.941480000000000     -0.928410000000000      2.571970000000000
H       1.694490000000000      2.809990000000000      4.859000000000000
H       0.019630000000000      2.374160000000000      5.399550000000000
H       1.442480000000000      1.963180000000000      6.435700000000000
C      -0.520230000000000     -3.512310000000000     -0.900580000000000
C      -1.082630000000000     -3.890750000000000     -2.109120000000000
C      -1.247280000000000     -2.733700000000000     -2.855060000000000
C      -0.792480000000000     -1.700710000000000     -2.069850000000000
N      -0.353520000000000     -2.181630000000000     -0.897390000000000
C      -0.743810000000000     -0.225580000000000     -2.418810000000000
N      -0.367590000000000      0.569690000000000     -1.232680000000000
C      -0.289610000000000      2.040270000000000     -1.301490000000000
H      -1.338580000000000     -4.894730000000000     -2.416670000000000
H      -0.247910000000000     -4.171070000000000     -0.085230000000000
H      -1.657060000000000     -2.649600000000000     -3.852260000000000
H      -1.746320000000000      0.082710000000000     -2.766770000000000
H       0.005310000000000     -0.099550000000000     -3.227030000000000
C      -1.694020000000000      2.618790000000000     -1.557810000000000
C       0.221020000000000      2.580160000000000      0.047010000000000
C       0.680390000000000      2.483920000000000     -2.410980000000000
H      -2.389000000000000      2.311530000000000     -0.745480000000000
H      -1.663050000000000      3.727950000000000     -1.596860000000000
H      -2.106920000000000      2.262910000000000     -2.522810000000000
H       1.241570000000000      2.198970000000000      0.264040000000000
H       0.264020000000000      3.692580000000000      0.031280000000000
H      -0.453730000000000      2.275020000000000      0.875070000000000
H       1.691510000000000      2.058920000000000     -2.231530000000000
H       0.324890000000000      2.150920000000000     -3.407400000000000
H       0.760910000000000      3.591860000000000     -2.437510000000000
Na    -16.047059999999998     -1.784460000000000      4.806430000000000
C     -13.765150000000000     -3.369960000000000      3.064870000000000
C     -12.813010000000000     -2.363810000000000      4.905030000000000
O     -13.651070000000001     -2.162780000000000      3.787180000000000
C     -14.658429999999999     -3.144590000000000      1.853510000000000
C     -12.706440000000001     -1.063140000000000      5.688310000000000
H     -12.770519999999999     -3.704110000000000      2.694310000000000
H     -14.234320000000000     -4.162560000000000      3.691140000000000
H     -13.239720000000000     -3.135300000000000      5.586020000000000
H     -11.786500000000000     -2.652120000000000      4.582270000000000
H     -13.711340000000000     -0.744350000000000      6.038420000000000
H     -12.048940000000000     -1.209490000000000      6.571400000000000
H     -12.274749999999999     -0.265190000000000      5.047470000000000
H     -14.220010000000000     -2.364970000000000      1.194910000000000
H     -14.753990000000000     -4.089120000000000      1.276970000000000
H     -15.669230000000001     -2.819100000000000      2.179280000000000
Na    -12.208430000000000     -0.617780000000000      2.211780000000000
Mg     -6.132350000000000     -3.325780000000000      2.571580000000000
H      -3.084070000000000     -3.699970000000000      2.232250000000000
C      -3.822410000000000     -5.608040000000000      1.461030000000000
C      -3.860770000000000     -4.460770000000000      2.453520000000000
C      -2.479530000000000     -6.325670000000000      1.558910000000000
H      -4.650860000000000     -6.313710000000000      1.689100000000000
H      -3.972180000000000     -5.203460000000000      0.435990000000000
H      -1.662310000000000     -5.605260000000000      1.341960000000000
H      -2.346800000000000     -6.718660000000000      2.590620000000000
C      -2.397680000000000     -7.481060000000000      0.572440000000000
H      -3.778320000000000     -4.824660000000000      3.499180000000000
H      -3.195020000000000     -8.224620000000000      0.785180000000000
H      -2.509580000000000     -7.106610000000000     -0.467340000000000
H      -1.408910000000000     -7.974770000000000      0.672960000000000
C      -6.022090000000000     -0.338370000000000      3.627750000000000
C      -6.971680000000000      0.669940000000000      3.641530000000000
C      -8.116650000000000      0.155120000000000      3.051760000000000
C      -7.812580000000000     -1.138690000000000      2.690050000000000
N      -6.554550000000000     -1.427260000000000      3.050650000000000
C      -8.714020000000000     -2.146420000000000      1.998750000000000
N      -7.937630000000000     -3.352620000000000      1.639980000000000
C      -8.563630000000000     -4.485520000000000      0.935940000000000
H      -6.846670000000000      1.667680000000000      4.039630000000000
H      -5.013800000000000     -0.277620000000000      4.017380000000000
H      -9.056540000000000      0.666490000000000      2.896370000000000
H      -9.116720000000001     -1.680330000000000      1.079600000000000
H      -9.539160000000001     -2.398830000000000      2.695820000000000
C      -9.013030000000001     -4.040760000000000     -0.468680000000000
C      -7.521710000000000     -5.608320000000000      0.781680000000000
C      -9.762180000000001     -5.027070000000000      1.733820000000000
H      -8.142749999999999     -3.658300000000000     -1.046170000000000
H      -9.459070000000001     -4.891100000000000     -1.027180000000000
H      -9.775670000000000     -3.237970000000000     -0.412510000000000
H      -7.176340000000000     -5.964190000000000      1.775740000000000
H      -7.957360000000000     -6.474930000000000      0.235830000000000
H      -6.638510000000000     -5.250520000000000      0.210200000000000
H      -9.438660000000000     -5.344040000000000      2.748610000000000
H     -10.550590000000000     -4.255010000000000      1.835750000000000
H     -10.212460000000000     -5.900970000000000      1.215760000000000
