140

Mg      0.540600000000000     -0.473950000000000     -0.610040000000000
H       1.529860000000000      1.420200000000000     -2.773010000000000
C       0.061930000000000      0.229200000000000     -3.897530000000000
C       1.201700000000000      0.368340000000000     -2.897950000000000
C      -1.237730000000000      0.918770000000000     -3.449290000000000
H       0.397150000000000      0.635580000000000     -4.873970000000000
H      -0.158630000000000     -0.853250000000000     -4.021430000000000
H      -1.992890000000000      0.767930000000000     -4.251280000000000
H      -1.623200000000000      0.445080000000000     -2.521530000000000
C      -1.083840000000000      2.418860000000000     -3.205200000000000
H       2.066480000000000     -0.266350000000000     -3.179710000000000
H      -0.413430000000000      2.607830000000000     -2.341040000000000
H      -0.678750000000000      2.919770000000000     -4.108870000000000
H      -2.076350000000000      2.856650000000000     -2.966120000000000
C      -2.467830000000000     -1.481850000000000     -0.430150000000000
C      -3.299490000000000     -1.691710000000000      0.657790000000000
C      -2.575680000000000     -1.351200000000000      1.790230000000000
C      -1.342800000000000     -0.931630000000000      1.345380000000000
N      -1.284490000000000     -1.025660000000000      0.009610000000000
C      -0.172100000000000     -0.445410000000000      2.177920000000000
N       0.858730000000000      0.145880000000000      1.299370000000000
C       2.094110000000000      0.717670000000000      1.865640000000000
H      -4.316760000000000     -2.057000000000000      0.631580000000000
H      -2.714490000000000     -1.658050000000000     -1.469820000000000
H      -2.910970000000000     -1.393370000000000      2.817320000000000
H       0.229670000000000     -1.317300000000000      2.732450000000000
H      -0.538600000000000      0.323670000000000      2.882590000000000
C       2.843700000000000     -0.319620000000000      2.722020000000000
C       3.008750000000000      1.163930000000000      0.709350000000000
C       1.743680000000000      1.955130000000000      2.714600000000000
H       3.096470000000000     -1.214510000000000      2.114080000000000
H       3.785840000000000      0.115350000000000      3.120540000000000
H       2.231620000000000     -0.639030000000000      3.590370000000000
H       2.495220000000000      1.908320000000000      0.063180000000000
H       3.937930000000000      1.632600000000000      1.104820000000000
H       3.300360000000000      0.297140000000000      0.078560000000000
H       1.211370000000000      2.707680000000000      2.091910000000000
H       1.091380000000000      1.686810000000000      3.569860000000000
H       2.661070000000000      2.424970000000000      3.127940000000000
Na     -2.712680000000000    -10.953030000000000      1.612420000000000
C      -4.422270000000000    -12.684250000000000      3.687990000000000
C      -3.057380000000000    -11.320309999999999      5.022310000000000
O      -3.166340000000000    -12.044820000000000      3.811630000000000
C      -5.431970000000000    -11.768260000000000      3.003810000000000
C      -2.487860000000000    -12.193310000000000      6.137540000000000
H      -4.284060000000000    -13.585870000000000      3.054360000000000
H      -4.817410000000000    -13.050330000000001      4.662400000000000
H      -2.359440000000000    -10.473620000000000      4.848280000000000
H      -4.022680000000000    -10.866030000000000      5.338710000000000
H      -1.485220000000000    -12.577360000000001      5.857460000000000
H      -2.387450000000000    -11.589259999999999      7.062920000000000
H      -3.159770000000000    -13.051489999999999      6.345110000000000
H      -5.059560000000000    -11.467779999999999      2.002250000000000
H      -6.395660000000000    -12.304750000000000      2.880630000000000
H      -5.608170000000000    -10.857910000000000      3.612170000000000
C      -3.942710000000000     -8.023320000000000      2.767580000000000
C      -2.875300000000000     -7.755070000000000      0.653760000000000
O      -3.117460000000000     -8.595860000000000      1.768500000000000
C      -5.362030000000000     -7.710560000000000      2.291120000000000
C      -2.101010000000000     -6.484250000000000      1.003690000000000
H      -4.036050000000000     -8.783750000000000      3.571020000000000
H      -3.462310000000000     -7.145180000000000      3.245570000000000
H      -2.237700000000000     -8.336860000000000     -0.046030000000000
H      -3.805020000000000     -7.533830000000000      0.090100000000000
H      -1.166600000000000     -6.748020000000000      1.541130000000000
H      -1.840240000000000     -5.944560000000000      0.069360000000000
H      -2.713470000000000     -5.801600000000000      1.626690000000000
H      -5.825000000000000     -8.616870000000000      1.847030000000000
H      -5.973250000000000     -7.381780000000000      3.157640000000000
H      -5.362830000000000     -6.887040000000000      1.548870000000000
Na     -1.192610000000000    -13.410000000000000      3.688640000000000
C      -0.542160000000000    -12.721909999999999      0.486920000000000
C       0.581910000000000    -11.286820000000001      1.955020000000000
O      -0.562420000000000    -12.090790000000000      1.750730000000000
C      -1.584290000000000    -13.833250000000000      0.479620000000000
C       0.463220000000000     -9.937690000000000      1.249230000000000
H      -0.811410000000000    -11.994190000000000     -0.308330000000000
H       0.443180000000000    -13.190860000000001      0.266780000000000
H       0.655500000000000    -11.092240000000000      3.046580000000000
H       1.522110000000000    -11.810850000000000      1.673520000000000
H      -0.451650000000000     -9.409599999999999      1.588380000000000
H       1.347610000000000     -9.313310000000000      1.495210000000000
H       0.424450000000000    -10.070040000000001      0.148690000000000
H      -2.591800000000000    -13.417450000000001      0.695360000000000
H      -1.604990000000000    -14.325860000000000     -0.515220000000000
H      -1.337510000000000    -14.593930000000000      1.249370000000000
C       0.768290000000000    -16.081189999999999      3.536970000000000
C      -1.406270000000000    -16.758849999999999      3.948640000000000
O      -0.574270000000000    -15.670140000000000      3.629370000000000
C       1.618950000000000    -14.858100000000000      3.221980000000000
C      -2.842570000000000    -16.256630000000001      4.006420000000000
H       1.122180000000000    -16.507159999999999      4.502950000000000
H       0.898720000000000    -16.814699999999998      2.709920000000000
H      -1.348030000000000    -17.545980000000000      3.163450000000000
H      -1.145230000000000    -17.176590000000001      4.947110000000000
H      -3.133820000000000    -15.832500000000000      3.021670000000000
H      -3.529940000000000    -17.091180000000001      4.256700000000000
H      -2.938570000000000    -15.464639999999999      4.780540000000000
H       1.512670000000000    -14.100809999999999      4.028570000000000
H       2.686990000000000    -15.146010000000000      3.134510000000000
H       1.289640000000000    -14.406850000000000      2.263160000000000
Mg      1.976870000000000     -8.070639999999999      5.224270000000000
H       4.526920000000000     -9.912140000000001      4.755700000000000
C       5.523740000000000     -8.045349999999999      5.318580000000000
C       4.390070000000000     -8.815690000000000      4.660590000000000
C       5.661910000000000     -8.354839999999999      6.815530000000000
H       6.468080000000000     -8.321120000000001      4.804350000000000
H       5.355910000000000     -6.955930000000000      5.181200000000000
H       5.838890000000000     -9.442240000000000      6.964750000000000
H       6.547360000000000     -7.801750000000000      7.194300000000000
C       4.446970000000000     -7.919740000000000      7.637470000000000
H       4.301970000000000     -8.535430000000000      3.588940000000000
H       3.546600000000000     -8.500150000000000      7.351760000000000
H       4.650830000000000     -8.100910000000001      8.714820000000000
H       4.247430000000000     -6.835970000000000      7.495910000000000
C       0.636620000000000     -9.888320000000000      7.459470000000000
C      -0.408370000000000     -9.650210000000000      8.337090000000000
C      -0.844800000000000     -8.354730000000000      8.104440000000000
C      -0.034140000000000     -7.851310000000000      7.110830000000000
N       0.842110000000000     -8.786770000000001      6.719840000000000
C      -0.071640000000000     -6.466480000000000      6.491650000000000
N       1.127240000000000     -6.267770000000000      5.649480000000000
C       1.368860000000000     -4.988450000000000      4.959180000000000
H      -0.810950000000000    -10.342990000000000      9.063610000000001
H       1.203450000000000    -10.805800000000000      7.369000000000000
H      -1.648170000000000     -7.836920000000000      8.610360000000000
H      -1.002160000000000     -6.383330000000000      5.892660000000000
H      -0.073590000000000     -5.719790000000000      7.308000000000000
C       1.586220000000000     -3.869490000000000      5.996850000000000
C       2.649200000000000     -5.123260000000000      4.115940000000000
C       0.194350000000000     -4.633130000000000      4.031190000000000
H       2.438130000000000     -4.126450000000000      6.664560000000000
H       1.812360000000000     -2.904410000000000      5.494910000000000
H       0.684670000000000     -3.717870000000000      6.624140000000000
H       2.534620000000000     -5.919290000000000      3.349390000000000
H       2.878090000000000     -4.166910000000000      3.594690000000000
H       3.516410000000000     -5.381200000000000      4.760160000000000
H       0.038440000000000     -5.437820000000000      3.282680000000000
H      -0.742990000000000     -4.494750000000000      4.608210000000000
H       0.400110000000000     -3.683780000000000      3.492340000000000
