155

Mg      0.522630000000000      0.149440000000000     -0.092530000000000
C       1.128270000000000      0.063940000000000      3.037080000000000
C       2.750520000000000     -1.179860000000000      1.809010000000000
O       1.393270000000000     -0.827520000000000      1.971460000000000
C       1.848520000000000      1.407310000000000      2.925340000000000
C       3.230580000000000     -2.102510000000000      2.917180000000000
H       0.047070000000000      0.284280000000000      2.982070000000000
H       1.272480000000000     -0.415540000000000      4.025420000000000
H       2.814630000000000     -1.740760000000000      0.850950000000000
H       3.415040000000000     -0.301290000000000      1.677190000000000
H       2.523540000000000     -2.951970000000000      3.024260000000000
H       4.237290000000000     -2.493250000000000      2.662500000000000
H       3.295610000000000     -1.546220000000000      3.873680000000000
H       1.755450000000000      1.814900000000000      1.899160000000000
H       1.393020000000000      2.126580000000000      3.637790000000000
H       2.920130000000000      1.296470000000000      3.183210000000000
H       1.827750000000000      2.150140000000000     -1.108200000000000
C       2.404210000000000      0.401650000000000     -2.277100000000000
C       2.142650000000000      1.098350000000000     -0.957700000000000
C       1.122500000000000      0.333430000000000     -3.115370000000000
H       3.193340000000000      0.972580000000000     -2.805000000000000
H       2.760850000000000     -0.635120000000000     -2.084900000000000
H       0.386510000000000     -0.331170000000000     -2.616510000000000
H       0.668150000000000      1.341810000000000     -3.213260000000000
C       1.418530000000000     -0.196940000000000     -4.512590000000000
H       3.029140000000000      1.054890000000000     -0.293980000000000
H       2.114400000000000      0.497900000000000     -5.029730000000000
H       1.878500000000000     -1.206370000000000     -4.462130000000000
H       0.477880000000000     -0.257070000000000     -5.099220000000000
C      -1.564190000000000     -2.255210000000000     -2.218070000000000
C      -0.537070000000000     -2.680180000000000     -1.406140000000000
C      -0.737270000000000     -2.114190000000000     -0.160130000000000
C      -1.834540000000000     -1.350260000000000     -0.217430000000000
N      -2.428510000000000     -1.422040000000000     -1.493520000000000
C      -2.397830000000000     -0.504670000000000      0.894430000000000
N      -1.541040000000000      0.661340000000000      1.173760000000000
C      -1.953550000000000      1.977880000000000      0.627410000000000
H       0.281840000000000     -3.321220000000000     -1.706720000000000
H      -1.689500000000000     -2.505840000000000     -3.261170000000000
H      -0.096640000000000     -2.254260000000000      0.697040000000000
H      -2.475850000000000     -1.123730000000000      1.813860000000000
H      -3.417910000000000     -0.197420000000000      0.619390000000000
C      -3.303650000000000      2.418710000000000      1.225790000000000
C      -0.888100000000000      3.010480000000000      1.047560000000000
C      -2.029630000000000      1.967480000000000     -0.914480000000000
H      -3.260340000000000      2.376260000000000      2.334760000000000
H      -3.540890000000000      3.460270000000000      0.919650000000000
H      -4.142920000000000      1.788190000000000      0.875340000000000
H       0.096250000000000      2.762720000000000      0.600190000000000
H      -1.160550000000000      4.034120000000000      0.707650000000000
H      -0.772140000000000      3.028190000000000      2.152590000000000
H      -1.033280000000000      1.763340000000000     -1.360930000000000
H      -2.742670000000000      1.203330000000000     -1.278160000000000
H      -2.376650000000000      2.954220000000000     -1.292650000000000
Na     -5.790380000000000     -6.361580000000000      1.130220000000000
C      -5.565010000000000     -7.280010000000000     -1.918720000000000
C      -7.819390000000000     -6.717970000000000     -1.593770000000000
O      -6.650460000000000     -7.263200000000000     -1.011920000000000
C      -4.771280000000000     -5.979450000000000     -1.840460000000000
C      -8.663340000000000     -7.803270000000000     -2.257560000000000
H      -4.893310000000000     -8.115930000000001     -1.629490000000000
H      -5.882610000000000     -7.488080000000000     -2.965190000000000
H      -8.418060000000001     -6.256700000000000     -0.779550000000000
H      -7.598220000000000     -5.901340000000000     -2.316300000000000
H      -8.958570000000000     -8.574159999999999     -1.515670000000000
H      -9.583940000000000     -7.347570000000000     -2.678780000000000
H      -8.099850000000000     -8.289910000000001     -3.080040000000000
H      -4.395340000000000     -5.820950000000000     -0.808040000000000
H      -3.905160000000000     -6.031900000000000     -2.532330000000000
H      -5.404610000000000     -5.116720000000000     -2.130920000000000
C      -6.801130000000000     -3.256390000000000      0.331270000000000
C      -6.062510000000000     -3.377330000000000      2.595060000000000
O      -6.413360000000000     -4.080630000000000      1.416120000000000
C      -5.691270000000000     -2.330180000000000     -0.165660000000000
C      -7.221690000000000     -2.587420000000000      3.202120000000000
H      -7.047630000000000     -3.939320000000000     -0.508500000000000
H      -7.737820000000000     -2.703000000000000      0.547980000000000
H      -5.771070000000000     -4.145230000000000      3.343550000000000
H      -5.159800000000000     -2.747970000000000      2.451030000000000
H      -8.097920000000000     -3.252840000000000      3.351850000000000
H      -6.909400000000000     -2.175230000000000      4.184400000000000
H      -7.504890000000000     -1.734650000000000      2.552800000000000
H      -4.777900000000000     -2.916990000000000     -0.398110000000000
H      -6.030830000000000     -1.814640000000000     -1.087140000000000
H      -5.458340000000000     -1.551920000000000      0.587590000000000
Na     -7.300690000000000     -9.340930000000000     -0.019000000000000
C      -5.699010000000000     -8.845720000000000      2.853680000000000
C      -7.921870000000000     -8.118200000000000      2.946120000000000
O      -6.793150000000000     -8.331480000000001      2.123040000000000
C      -4.668830000000000     -9.389340000000001      1.871480000000000
C      -7.808340000000000     -6.822100000000000      3.746250000000000
H      -5.217720000000000     -8.035280000000000      3.441790000000000
H      -5.996300000000000     -9.685879999999999      3.520760000000000
H      -8.803070000000000     -8.025259999999999      2.275680000000000
H      -8.131190000000000     -8.987180000000000      3.608330000000000
H      -7.660120000000000     -5.962260000000000      3.060960000000000
H      -8.743720000000000     -6.661450000000000      4.322170000000000
H      -6.962600000000000     -6.871940000000000      4.461910000000000
H      -4.340200000000000     -8.587800000000000      1.175680000000000
H      -3.784050000000000     -9.770270000000000      2.423540000000000
H      -5.105450000000000    -10.221130000000000      1.280180000000000
C      -7.525080000000000    -12.584750000000000      0.625400000000000
C      -6.235510000000000    -12.264400000000000     -1.271070000000000
O      -6.898900000000000    -11.634750000000000     -0.202200000000000
C      -8.245820000000000    -11.839510000000001      1.740940000000000
C      -5.556930000000000    -11.187180000000000     -2.106720000000000
H      -8.282270000000000    -13.170949999999999      0.057300000000000
H      -6.771150000000000    -13.258260000000000      1.091130000000000
H      -5.448240000000000    -12.956820000000000     -0.896670000000000
H      -6.959230000000000    -12.803850000000001     -1.922750000000000
H      -4.826490000000000    -10.629560000000000     -1.482220000000000
H      -5.021440000000000    -11.646960000000000     -2.963080000000000
H      -6.314590000000000    -10.472740000000000     -2.495750000000000
H      -9.008380000000001    -11.154059999999999      1.311920000000000
H      -8.747410000000000    -12.558130000000000      2.421500000000000
H      -7.517340000000000    -11.240780000000001      2.325910000000000
Mg    -13.168310000000000     -2.317380000000000     -3.359340000000000
H     -12.181780000000000      0.432620000000000     -2.371400000000000
C     -10.280960000000000     -0.535810000000000     -2.851490000000000
C     -11.687830000000000     -0.556960000000000     -2.283390000000000
C      -9.421640000000000      0.442750000000000     -2.056260000000000
H      -9.849950000000000     -1.559080000000000     -2.792700000000000
H     -10.328070000000000     -0.231260000000000     -3.920070000000000
H      -9.871620000000000      1.457920000000000     -2.113940000000000
H      -9.390210000000000      0.122230000000000     -0.991830000000000
C      -8.002070000000000      0.497950000000000     -2.600550000000000
H     -11.697770000000000     -0.917580000000000     -1.233560000000000
H      -7.529160000000000     -0.504330000000000     -2.539430000000000
H      -8.009580000000000      0.836450000000000     -3.658350000000000
H      -7.408640000000000      1.215220000000000     -1.996380000000000
C     -16.268930000000001     -1.695680000000000     -3.150510000000000
C     -17.370080000000002     -2.267620000000000     -3.768700000000000
C     -16.886749999999999     -3.261770000000000     -4.605640000000000
C     -15.516980000000000     -3.246380000000000     -4.476300000000000
N     -15.159020000000000     -2.302810000000000     -3.586810000000000
C     -14.503170000000001     -4.128280000000000     -5.178920000000000
N     -13.132389999999999     -3.661550000000000     -4.882480000000000
C     -11.952800000000000     -4.329980000000000     -5.458930000000000
H     -18.405490000000000     -1.995180000000000     -3.624140000000000
H     -16.287759999999999     -0.889600000000000     -2.425440000000000
H     -17.467829999999999     -3.915970000000000     -5.243480000000000
H     -14.685990000000000     -4.067400000000000     -6.269090000000000
H     -14.652760000000001     -5.168120000000000     -4.821700000000000
C     -11.957730000000000     -4.163230000000000     -6.990520000000000
C     -10.683070000000001     -3.662420000000000     -4.900070000000000
C     -11.933640000000000     -5.822330000000000     -5.083490000000000
H     -11.961840000000000     -3.083640000000000     -7.258310000000000
H     -11.058080000000000     -4.633650000000000     -7.441230000000000
H     -12.849840000000000     -4.639330000000000     -7.445120000000000
H     -10.636480000000001     -3.767930000000000     -3.795120000000000
H      -9.770899999999999     -4.132250000000000     -5.331210000000000
H     -10.664140000000000     -2.580130000000000     -5.151110000000000
H     -11.932740000000001     -5.941540000000000     -3.978570000000000
H     -12.817110000000000     -6.349050000000000     -5.498580000000000
H     -11.025710000000000     -6.315020000000000     -5.493190000000000
