170

Mg     -0.662100000000000     -0.518300000000000     -0.533150000000000
C       2.047030000000000     -0.792500000000000      1.314730000000000
C       2.608210000000000      0.067630000000000     -0.847400000000000
O       1.657670000000000     -0.581290000000000     -0.031050000000000
C       2.619930000000000      0.431260000000000      2.033510000000000
C       3.834410000000000     -0.793680000000000     -1.106030000000000
H       1.120740000000000     -1.062970000000000      1.858450000000000
H       2.724070000000000     -1.666590000000000      1.396910000000000
H       2.118400000000000      0.248350000000000     -1.823300000000000
H       2.866170000000000      1.077830000000000     -0.473100000000000
H       4.482860000000000     -0.286250000000000     -1.849830000000000
H       3.527780000000000     -1.782610000000000     -1.505340000000000
H       4.405220000000000     -0.936690000000000     -0.167930000000000
H       1.944480000000000      1.296410000000000      1.931380000000000
H       3.620920000000000      0.690070000000000      1.633850000000000
H       2.721640000000000      0.209230000000000      3.114540000000000
H      -0.401370000000000     -2.792820000000000     -1.898370000000000
C      -1.172770000000000     -1.402110000000000     -3.409230000000000
C      -1.155810000000000     -1.985380000000000     -1.985880000000000
C       0.132090000000000     -0.713700000000000     -3.856730000000000
H      -1.411860000000000     -2.221340000000000     -4.118630000000000
H      -1.980260000000000     -0.640980000000000     -3.465050000000000
H      -0.008520000000000     -0.341460000000000     -4.896750000000000
H       0.330020000000000      0.168270000000000     -3.214990000000000
C       1.349220000000000     -1.638480000000000     -3.852320000000000
H      -2.154330000000000     -2.385350000000000     -1.725340000000000
H       1.559750000000000     -1.998480000000000     -2.827070000000000
H       1.181010000000000     -2.509110000000000     -4.519300000000000
H       2.242910000000000     -1.082670000000000     -4.212240000000000
C       0.861230000000000      3.093530000000000     -0.888160000000000
C      -0.196630000000000      2.652050000000000     -1.649380000000000
C      -1.084390000000000      2.020170000000000     -0.796390000000000
C      -0.571140000000000      2.051560000000000      0.438310000000000
N       0.653540000000000      2.748170000000000      0.454150000000000
C      -1.168550000000000      1.400800000000000      1.657400000000000
N      -1.280240000000000     -0.043530000000000      1.419560000000000
C      -1.981260000000000     -0.884290000000000      2.419730000000000
H      -0.290850000000000      2.764070000000000     -2.721160000000000
H       1.734170000000000      3.613390000000000     -1.256500000000000
H      -2.007110000000000      1.533220000000000     -1.089060000000000
H      -2.155900000000000      1.855950000000000      1.858130000000000
H      -0.489500000000000      1.580870000000000      2.516360000000000
C      -3.482820000000000     -0.539940000000000      2.462930000000000
C      -1.824050000000000     -2.360710000000000      2.019910000000000
C      -1.370860000000000     -0.691500000000000      3.829270000000000
H      -3.946540000000000     -0.700830000000000      1.467460000000000
H      -4.007850000000000     -1.177910000000000      3.207460000000000
H      -3.649990000000000      0.512920000000000      2.767550000000000
H      -0.754050000000000     -2.657540000000000      2.014830000000000
H      -2.361860000000000     -3.021490000000000      2.736780000000000
H      -2.241890000000000     -2.534250000000000      1.006160000000000
H      -0.287230000000000     -0.935950000000000      3.826960000000000
H      -1.494130000000000      0.352110000000000      4.187280000000000
H      -1.869990000000000     -1.354410000000000      4.569990000000000
Na     -2.111090000000000      6.725650000000000      6.291200000000000
C      -1.069850000000000      4.487760000000000      4.262220000000000
C       0.150530000000000      4.169180000000000      6.239600000000000
O      -0.468740000000000      5.108680000000000      5.381830000000000
C      -2.511980000000000      4.096250000000000      4.567910000000000
C       1.607400000000000      3.938940000000000      5.845700000000000
H      -1.077030000000000      5.221820000000000      3.428940000000000
H      -0.490370000000000      3.611970000000000      3.895710000000000
H       0.126600000000000      4.585170000000000      7.269510000000000
H      -0.397630000000000      3.201930000000000      6.283470000000000
H       2.176540000000000      4.890780000000000      5.887930000000000
H       2.070360000000000      3.220100000000000      6.553590000000000
H       1.675390000000000      3.520940000000000      4.820150000000000
H      -3.097680000000000      4.992660000000000      4.861370000000000
H      -2.973560000000000      3.646650000000000      3.664600000000000
H      -2.549940000000000      3.354470000000000      5.391370000000000
C      -3.232000000000000      4.476600000000000      8.521020000000000
C      -4.148830000000000      6.639620000000000      8.931880000000000
O      -3.199750000000000      5.861350000000000      8.223680000000000
C      -4.546610000000000      3.794080000000000      8.141500000000001
C      -3.934330000000000      6.637360000000000     10.445259999999999
H      -2.438260000000000      4.005100000000000      7.904280000000000
H      -2.948170000000000      4.274270000000000      9.574009999999999
H      -4.012710000000000      7.688450000000000      8.590479999999999
H      -5.190750000000000      6.372700000000000      8.659300000000000
H      -2.889210000000000      6.928270000000000     10.681690000000000
H      -4.627440000000000      7.366740000000000     10.914470000000000
H      -4.152100000000000      5.639230000000000     10.876080000000000
H      -4.786100000000000      3.990900000000000      7.075340000000000
H      -4.444640000000000      2.698590000000000      8.291100000000000
H      -5.378790000000000      4.145160000000000      8.784369999999999
Na      1.162070000000000      6.809040000000000      4.967950000000000
C      -0.908240000000000      9.363720000000001      5.451410000000000
C       0.228240000000000      8.774419999999999      7.409500000000000
O      -0.289320000000000      8.321009999999999      6.175140000000000
C      -1.112580000000000      8.907970000000001      4.012220000000000
C      -0.861860000000000      8.917909999999999      8.470499999999999
H      -1.905980000000000      9.582549999999999      5.883720000000000
H      -0.283400000000000     10.284750000000001      5.422530000000000
H       0.946400000000000      8.004659999999999      7.764830000000000
H       0.814620000000000      9.713400000000000      7.300580000000000
H      -1.393060000000000      7.953230000000000      8.604620000000001
H      -0.398250000000000      9.206080000000000      9.437200000000001
H      -1.591610000000000      9.703460000000000      8.186579999999999
H      -1.733150000000000      7.986760000000000      3.985140000000000
H      -1.626830000000000      9.703870000000000      3.433340000000000
H      -0.133260000000000      8.695840000000000      3.534860000000000
C       3.307010000000000      8.794010000000000      3.406060000000000
C       2.533280000000000      7.184160000000000      1.931800000000000
O       2.395980000000000      7.738360000000000      3.217580000000000
C       3.127110000000000      9.328569999999999      4.820800000000000
C       1.502730000000000      6.072660000000000      1.782570000000000
H       4.356860000000000      8.437720000000001      3.303260000000000
H       3.099550000000000      9.624380000000000      2.694430000000000
H       2.331940000000000      7.948010000000000      1.147300000000000
H       3.544920000000000      6.738680000000000      1.799320000000000
H       0.479690000000000      6.486840000000000      1.909940000000000
H       1.581310000000000      5.611380000000000      0.776710000000000
H       1.670830000000000      5.289630000000000      2.553580000000000
H       3.325920000000000      8.523980000000000      5.561410000000000
H       3.825920000000000     10.170529999999999      5.005310000000000
H       2.086860000000000      9.689909999999999      4.957750000000000
Mg     -4.874070000000000     13.699370000000000     10.489839999999999
C      -7.546230000000000     14.054349999999999      7.713020000000000
C      -5.752630000000000     15.382660000000000      7.133110000000000
O      -6.574890000000000     14.958530000000000      8.200659999999999
C      -8.676240000000000     13.932589999999999      8.723450000000000
C      -4.635120000000000     16.264260000000000      7.672250000000000
H      -8.005129999999999     14.407270000000000      6.761710000000000
H      -7.093070000000000     13.051959999999999      7.559540000000000
H      -5.290250000000000     14.515540000000000      6.612490000000000
H      -6.339670000000000     15.985640000000000      6.406610000000000
H      -4.012600000000000     15.700630000000000      8.396240000000001
H      -3.988580000000000     16.603999999999999      6.835580000000000
H      -5.064460000000000     17.153630000000000      8.179180000000001
H      -9.149440000000000     14.922219999999999      8.889260000000000
H      -9.438330000000001     13.215750000000000      8.353220000000000
H      -8.294800000000000     13.563240000000000      9.688330000000001
H      -4.491960000000000     16.979630000000000     10.706630000000001
C      -3.131170000000000     15.726220000000000     11.879860000000001
C      -4.517390000000000     16.082390000000000     11.357139999999999
C      -2.158090000000000     15.433299999999999     10.731000000000000
H      -2.760570000000000     16.581189999999999     12.482430000000001
H      -3.207440000000000     14.828450000000000     12.532660000000000
H      -2.498050000000000     14.542109999999999     10.159340000000000
H      -2.117940000000000     16.303519999999999     10.041440000000000
C      -0.751250000000000     15.174260000000000     11.262620000000000
H      -5.226860000000000     16.235160000000000     12.196130000000000
H      -0.386100000000000     16.065550000000002     11.816590000000000
H      -0.745360000000000     14.295100000000000     11.941400000000000
H      -0.060120000000000     14.977630000000000     10.415950000000000
C      -3.608420000000000     12.805820000000001      7.728420000000000
C      -3.826870000000000     11.690230000000000      6.939140000000000
C      -4.773750000000000     10.916280000000000      7.593970000000000
C      -5.111010000000000     11.602919999999999      8.739420000000001
N      -4.395710000000000     12.736800000000001      8.807860000000000
C      -6.105140000000000     11.210070000000000      9.817399999999999
N      -6.393320000000000     12.360930000000000     10.707800000000001
C      -6.984160000000000     12.118530000000000     12.037690000000000
H      -3.348990000000000     11.469480000000001      5.996610000000000
H      -2.922940000000000     13.618110000000000      7.514060000000000
H      -5.180130000000000      9.969320000000000      7.262820000000000
H      -7.056860000000000     10.903520000000000      9.336110000000000
H      -5.674810000000000     10.351369999999999     10.370760000000001
C      -5.944980000000000     11.505070000000000     12.990919999999999
C      -7.440990000000000     13.471370000000000     12.621200000000000
C      -8.217499999999999     11.199960000000001     11.918240000000001
H      -5.074530000000000     12.187220000000000     13.102390000000000
H      -6.393870000000000     11.343560000000000     13.995430000000001
H      -5.582120000000000     10.526199999999999     12.620760000000001
H      -8.199540000000001     13.955740000000000     11.971140000000000
H      -7.897140000000000     13.333860000000000     13.626429999999999
H      -6.581560000000000     14.166790000000001     12.724250000000000
H      -8.962850000000000     11.646039999999999     11.223920000000000
H      -7.934270000000000     10.199120000000001     11.531790000000001
H      -8.701950000000000     11.058790000000000     12.907760000000000
