155

Mg      0.785070000000000     -0.343210000000000     -0.539970000000000
C      -0.339840000000000      2.158290000000000      1.317390000000000
C      -1.367820000000000      2.211960000000000     -0.842160000000000
O      -0.331920000000000      1.707760000000000     -0.026170000000000
C      -1.683360000000000      2.039400000000000      2.040920000000000
C      -1.231630000000000      3.704280000000000     -1.104480000000000
H       0.362660000000000      1.498030000000000      1.863310000000000
H       0.073330000000000      3.184480000000000      1.392570000000000
H      -1.283920000000000      1.696720000000000     -1.818240000000000
H      -2.372570000000000      1.935520000000000     -0.465940000000000
H      -1.999020000000000      4.007720000000000     -1.845670000000000
H      -0.224510000000000      3.931740000000000     -1.511080000000000
H      -1.388810000000000      4.276250000000000     -0.169000000000000
H      -2.083940000000000      1.015180000000000      1.952300000000000
H      -2.416610000000000      2.764730000000000      1.634530000000000
H      -1.541670000000000      2.256670000000000      3.118570000000000
H       2.637640000000000      1.022820000000000     -1.903400000000000
C       1.813840000000000     -0.341470000000000     -3.408610000000000
C       2.316080000000000     -0.034760000000000     -1.987830000000000
C       0.562030000000000      0.443970000000000     -3.847950000000000
H       2.638410000000000     -0.140620000000000     -4.123950000000000
H       1.558030000000000     -1.421480000000000     -3.461300000000000
H       0.302540000000000      0.132700000000000     -4.884950000000000
H      -0.295830000000000      0.177430000000000     -3.198050000000000
C       0.753420000000000      1.960670000000000     -3.850620000000000
H       3.167480000000000     -0.696100000000000     -1.734820000000000
H       0.962220000000000      2.328460000000000     -2.827560000000000
H       1.588640000000000      2.248180000000000     -4.522220000000000
H      -0.176600000000000      2.453430000000000     -4.210460000000000
C      -3.115340000000000     -0.832860000000000     -0.891790000000000
C      -2.204360000000000     -1.532260000000000     -1.649990000000000
C      -1.213420000000000     -1.980960000000000     -0.795460000000000
C      -1.496380000000000     -1.548400000000000      0.437040000000000
N      -2.711700000000000     -0.833820000000000      0.451350000000000
C      -0.630820000000000     -1.744640000000000      1.653420000000000
N       0.673890000000000     -1.112310000000000      1.416030000000000
C       1.756000000000000     -1.299070000000000      2.412980000000000
H      -2.254070000000000     -1.677110000000000     -2.720690000000000
H      -4.002310000000000     -0.339720000000000     -1.264370000000000
H      -0.331750000000000     -2.540400000000000     -1.083310000000000
H      -0.526400000000000     -2.829500000000000      1.843330000000000
H      -1.127130000000000     -1.258810000000000      2.519580000000000
C       2.212280000000000     -2.770870000000000      2.455630000000000
C       2.953950000000000     -0.422620000000000      2.011540000000000
C       1.287160000000000     -0.867260000000000      3.823230000000000
H       2.577580000000000     -3.094040000000000      1.458630000000000
H       3.033480000000000     -2.902630000000000      3.194330000000000
H       1.388000000000000     -3.443320000000000      2.768120000000000
H       2.672880000000000      0.651520000000000      2.003020000000000
H       3.793820000000000     -0.553120000000000      2.730860000000000
H       3.316760000000000     -0.699870000000000      0.999720000000000
H       0.956110000000000      0.193070000000000      3.821280000000000
H       0.446650000000000     -1.496460000000000      4.183100000000000
H       2.112420000000000     -0.967840000000000      4.562090000000000
Na     -2.517280000000000      9.192950000000000     -8.754060000000001
C      -0.842840000000000     11.905340000000001     -9.010190000000000
C      -2.287670000000000     11.907420000000000    -10.858060000000000
O      -1.509290000000000     11.118370000000001     -9.978450000000000
C      -1.710140000000000     12.086850000000000     -7.768560000000000
C      -1.474780000000000     12.340809999999999    -12.075519999999999
H       0.082600000000000     11.367760000000001     -8.713720000000000
H      -0.512340000000000     12.890739999999999     -9.409480000000000
H      -3.138330000000000     11.284219999999999    -11.207440000000000
H      -2.738200000000000     12.792550000000000    -10.356190000000000
H      -1.095910000000000     11.454879999999999    -12.625830000000001
H      -2.121080000000000     12.929580000000000    -12.759449999999999
H      -0.615090000000000     12.971390000000000    -11.768620000000000
H      -1.973670000000000     11.098570000000000     -7.337170000000000
H      -1.151670000000000     12.671510000000000     -7.008280000000000
H      -2.642730000000000     12.631740000000001     -8.020390000000001
C      -5.467760000000000     10.821149999999999     -8.523440000000001
C      -5.663210000000000      8.548069999999999     -7.833970000000000
O      -4.867470000000000      9.539540000000001     -8.459930000000000
C      -5.733740000000000     11.446640000000000     -7.153520000000000
C      -6.963480000000000      8.247030000000001     -8.579689999999999
H      -4.741540000000000     11.482360000000000     -9.041020000000000
H      -6.374530000000000     10.820510000000001     -9.162260000000000
H      -5.064090000000000      7.612350000000000     -7.842990000000000
H      -5.841170000000000      8.773750000000000     -6.762220000000000
H      -6.745700000000000      8.002280000000001     -9.640590000000000
H      -7.465690000000000      7.378540000000000     -8.104509999999999
H      -7.660490000000000      9.107670000000001     -8.529050000000000
H      -4.800860000000000     11.460220000000000     -6.551490000000000
H      -6.088590000000000     12.489480000000000     -7.292230000000000
H      -6.524410000000000     10.893280000000001     -6.607900000000000
Na     -0.180520000000000      9.694789999999999    -11.385510000000000
C      -0.739530000000000      6.914550000000000     -9.624870000000000
C      -2.257770000000000      7.177180000000000    -11.386350000000000
O      -1.424910000000000      7.832590000000000    -10.451350000000000
C       0.390030000000000      7.647800000000000     -8.912419999999999
C      -3.571990000000000      6.720780000000000    -10.756330000000000
H      -1.426670000000000      6.509150000000000     -8.851599999999999
H      -0.279630000000000      6.085820000000000    -10.208840000000000
H      -2.501580000000000      7.914140000000000    -12.181390000000000
H      -1.739150000000000      6.336170000000000    -11.897800000000000
H      -4.098050000000000      7.586290000000000    -10.303490000000000
H      -4.222440000000000      6.277800000000000    -11.539339999999999
H      -3.390840000000000      5.952190000000000     -9.977600000000001
H      -0.015740000000000      8.488870000000000     -8.310340000000000
H       0.926560000000000      6.949080000000000     -8.237259999999999
H       1.110930000000000      8.051370000000000     -9.653720000000000
C       2.456210000000000      8.285489999999999    -12.822089999999999
C       3.155530000000000     10.094030000000000    -11.557980000000001
O       2.066580000000000      9.269190000000000    -11.894470000000000
C       1.232320000000000      7.448440000000000    -13.168799999999999
C       2.677860000000000     11.115220000000001    -10.534430000000000
H       2.832900000000000      8.750019999999999    -13.761310000000000
H       3.222480000000000      7.609920000000000    -12.380010000000000
H       3.974930000000000      9.499520000000000    -11.094740000000000
H       3.524370000000000     10.646129999999999    -12.451710000000000
H       2.302590000000000     10.593750000000000     -9.627940000000001
H       3.513200000000000     11.785790000000000    -10.244389999999999
H       1.854760000000000     11.727570000000000    -10.962560000000000
H       0.442820000000000      8.092140000000001    -13.613420000000000
H       1.503610000000000      6.654820000000000    -13.895330000000000
H       0.829380000000000      6.971960000000000    -12.251170000000000
Mg      0.683720000000000      9.849620000000000     -1.972010000000000
H      -0.067820000000000     12.717110000000000     -1.120830000000000
C       2.105740000000000     12.916779999999999     -1.342630000000000
C       0.864530000000000     12.173000000000000     -0.867280000000000
C       2.196390000000000     13.040789999999999     -2.872400000000000
H       2.120310000000000     13.923060000000000     -0.874300000000000
H       2.999360000000000     12.354010000000001     -0.995550000000000
H       3.129990000000000     13.595290000000000     -3.111460000000000
H       2.266550000000000     12.032930000000000     -3.333790000000000
C       1.018680000000000     13.787599999999999     -3.497270000000000
H       0.902370000000000     12.001110000000001      0.227810000000000
H       0.076410000000000     13.216390000000001     -3.365400000000000
H       0.911370000000000     14.794119999999999     -3.041600000000000
H       1.193810000000000     13.904270000000000     -4.587810000000000
C       3.016440000000000      9.229970000000000     -4.029940000000000
C       3.126230000000000      8.302280000000000     -5.055320000000000
C       1.931750000000000      7.599560000000000     -5.083970000000000
C       1.139090000000000      8.135759999999999     -4.096670000000000
N       1.815520000000000      9.112570000000000     -3.458220000000000
C      -0.270600000000000      7.743550000000000     -3.709670000000000
N      -0.826570000000000      8.735220000000000     -2.765120000000000
C      -2.192360000000000      8.597750000000000     -2.231470000000000
H       3.977550000000000      8.152460000000000     -5.702020000000000
H       3.778510000000000      9.940750000000000     -3.726440000000000
H       1.666210000000000      6.794010000000000     -5.758570000000000
H      -0.229470000000000      6.731440000000000     -3.253980000000000
H      -0.891590000000000      7.724110000000000     -4.626600000000000
C      -2.371730000000000      7.249600000000000     -1.511270000000000
C      -2.441370000000000      9.736760000000000     -1.226390000000000
C      -3.212270000000000      8.726920000000000     -3.380210000000000
H      -1.637010000000000      7.150000000000000     -0.683750000000000
H      -3.395970000000000      7.168210000000000     -1.087290000000000
H      -2.235000000000000      6.405120000000000     -2.215660000000000
H      -2.313240000000000     10.727470000000000     -1.713780000000000
H      -3.475580000000000      9.681260000000000     -0.819340000000000
H      -1.729790000000000      9.673190000000000     -0.375310000000000
H      -3.084760000000000      9.703170000000000     -3.897850000000000
H      -3.084340000000000      7.916940000000000     -4.126780000000000
H      -4.251950000000000      8.667320000000000     -2.993820000000000
