110

Mg     -0.293500000000000      0.400630000000000      0.667370000000000
C       0.967690000000000     -2.472080000000000     -1.401260000000000
C      -1.337230000000000     -2.549890000000000     -1.387960000000000
O      -0.187720000000000     -2.306240000000000     -0.602320000000000
C       2.187140000000000     -2.642050000000000     -0.507910000000000
C      -2.589000000000000     -2.284900000000000     -0.562010000000000
H       0.908060000000000     -3.384010000000000     -2.036190000000000
H       1.118970000000000     -1.582790000000000     -2.047420000000000
H      -1.361010000000000     -1.891070000000000     -2.281250000000000
H      -1.366590000000000     -3.609930000000000     -1.717500000000000
H      -2.624240000000000     -1.226780000000000     -0.232850000000000
H      -3.492080000000000     -2.494960000000000     -1.173380000000000
H      -2.599160000000000     -2.942460000000000      0.331970000000000
H       2.061070000000000     -3.524760000000000      0.151030000000000
H       3.096570000000000     -2.768140000000000     -1.131290000000000
H       2.331770000000000     -1.758140000000000      0.129020000000000
H      -2.279550000000000     -1.427220000000000      2.361110000000000
C      -2.431580000000000      0.740650000000000      2.734880000000000
C      -1.635160000000000     -0.542810000000000      2.530160000000000
C      -3.341910000000000      1.044440000000000      1.536600000000000
H      -3.041440000000000      0.616350000000000      3.652200000000000
H      -1.725800000000000      1.589400000000000      2.877520000000000
H      -2.731640000000000      1.232010000000000      0.625330000000000
H      -4.010350000000000      0.178540000000000      1.343680000000000
C      -4.210340000000000      2.269760000000000      1.813590000000000
H      -0.920210000000000     -0.715550000000000      3.360350000000000
H      -4.841760000000000      2.090200000000000      2.710120000000000
H      -3.578770000000000      3.166760000000000      1.987380000000000
H      -4.877600000000000      2.464930000000000      0.947470000000000
C      -1.506750000000000      0.663260000000000     -2.242350000000000
C      -0.906890000000000      0.971670000000000     -3.450420000000000
C       0.434570000000000      1.203060000000000     -3.183120000000000
C       0.599400000000000      1.011720000000000     -1.830930000000000
N      -0.575230000000000      0.677110000000000     -1.280320000000000
C       1.866260000000000      1.166190000000000     -1.008220000000000
N       1.700130000000000      0.568490000000000      0.337100000000000
C       2.637040000000000      0.943400000000000      1.415190000000000
H      -1.392690000000000      1.023180000000000     -4.413830000000000
H      -2.553820000000000      0.427870000000000     -2.086450000000000
H       1.205030000000000      1.469570000000000     -3.893010000000000
H       2.702800000000000      0.648510000000000     -1.519190000000000
H       2.074740000000000      2.252060000000000     -0.947580000000000
C       2.384600000000000      2.385200000000000      1.890820000000000
C       2.417040000000000     -0.006440000000000      2.610560000000000
C       4.091690000000000      0.785760000000000      0.929270000000000
H       1.352760000000000      2.488470000000000      2.290540000000000
H       3.100640000000000      2.651550000000000      2.699180000000000
H       2.521470000000000      3.116010000000000      1.070270000000000
H       2.599480000000000     -1.064400000000000      2.327890000000000
H       3.109470000000000      0.246130000000000      3.443320000000000
H       1.377810000000000      0.074350000000000      2.991820000000000
H       4.266410000000000     -0.253140000000000      0.573570000000000
H       4.308080000000000      1.482640000000000      0.093310000000000
H       4.809480000000000      1.001760000000000      1.748390000000000
Na      2.636670000000000     -6.495140000000000      4.437340000000000
C       1.397500000000000     -8.785950000000000      2.484430000000000
C       0.068770000000000     -8.516140000000000      4.347240000000000
O       1.390540000000000     -8.717549999999999      3.894400000000000
C       2.823970000000000     -9.009760000000000      2.002270000000000
C       0.069330000000000     -8.429240000000000      5.866940000000000
H       0.780400000000000     -9.641520000000000      2.126590000000000
H       1.035110000000000     -7.830640000000000      2.040910000000000
H      -0.343940000000000     -7.559250000000000      3.953620000000000
H      -0.582040000000000     -9.371919999999999      4.055750000000000
H       0.699320000000000     -7.577690000000000      6.201570000000000
H      -0.967300000000000     -8.274139999999999      6.234310000000000
H       0.467400000000000     -9.370410000000000      6.302810000000000
H       3.222280000000000     -9.961370000000001      2.414140000000000
H       2.841110000000000     -9.064320000000000      0.892990000000000
H       3.474640000000000     -8.171390000000001      2.330150000000000
Na      1.942350000000000    -11.185090000000001      4.642510000000000
Mg      1.602470000000000     -3.981050000000000      8.771000000000001
H       0.697180000000000     -3.965820000000000     11.794660000000000
C       1.508950000000000     -1.935720000000000     11.649660000000001
C       1.503900000000000     -3.408880000000000     11.276460000000000
C       0.186460000000000     -1.230750000000000     11.317660000000000
H       1.692510000000000     -1.861730000000000     12.741820000000001
H       2.341500000000000     -1.425930000000000     11.119730000000001
H      -0.654320000000000     -1.725590000000000     11.850830000000000
H       0.264190000000000     -0.184840000000000     11.682390000000000
C      -0.119090000000000     -1.184940000000000      9.818930000000000
H       2.490310000000000     -3.869020000000000     11.500999999999999
H      -0.295370000000000     -2.203530000000000      9.418290000000001
H      -1.037770000000000     -0.581850000000000      9.652620000000001
H       0.716980000000000     -0.709110000000000      9.263100000000000
C      -1.253430000000000     -4.636070000000000      7.542020000000000
C      -1.726480000000000     -4.598250000000000      6.240400000000000
C      -0.677270000000000     -4.170180000000000      5.441100000000000
C       0.383090000000000     -3.945760000000000      6.290870000000000
N       0.030500000000000     -4.244260000000000      7.548800000000000
C       1.771620000000000     -3.450410000000000      5.934320000000000
N       2.511310000000000     -3.112610000000000      7.168990000000000
C       3.877000000000000     -2.562290000000000      7.108790000000000
H      -2.722920000000000     -4.856260000000000      5.908710000000000
H      -1.811600000000000     -4.933400000000000      8.420529999999999
H      -0.690340000000000     -4.025810000000000      4.369430000000000
H       2.285530000000000     -4.252270000000000      5.367390000000000
H       1.668570000000000     -2.544860000000000      5.307500000000000
C       3.848260000000000     -1.178770000000000      6.430820000000000
C       4.399850000000000     -2.388140000000000      8.545949999999999
C       4.819640000000000     -3.509400000000000      6.345530000000000
H       3.170020000000000     -0.493650000000000      6.985830000000000
H       4.863020000000000     -0.727650000000000      6.409110000000000
H       3.491870000000000     -1.251270000000000      5.384400000000000
H       4.443530000000000     -3.365810000000000      9.071830000000000
H       5.422900000000000     -1.949980000000000      8.540270000000000
H       3.737850000000000     -1.709390000000000      9.124129999999999
H       4.842660000000000     -4.507530000000000      6.832850000000000
H       4.493340000000000     -3.633320000000000      5.292450000000000
H       5.852410000000000     -3.098670000000000      6.329840000000000
