125

Mg     -0.080850000000000      0.957480000000000     -0.019020000000000
C       0.164340000000000     -1.742550000000000      1.858110000000000
C      -1.987880000000000     -1.658580000000000      0.814170000000000
O      -0.805230000000000     -0.973990000000000      1.167380000000000
C       0.502020000000000     -3.095000000000000      1.226410000000000
C      -2.825580000000000     -2.034470000000000      2.026650000000000
H       1.098570000000000     -1.148050000000000      1.829650000000000
H      -0.105410000000000     -1.849350000000000      2.928190000000000
H      -2.588550000000000     -0.960180000000000      0.200550000000000
H      -1.792720000000000     -2.520270000000000      0.145840000000000
H      -3.793410000000000     -2.453850000000000      1.681960000000000
H      -3.019610000000000     -1.136270000000000      2.648720000000000
H      -2.299020000000000     -2.796170000000000      2.634100000000000
H       0.756430000000000     -2.974820000000000      0.160220000000000
H      -0.345540000000000     -3.801820000000000      1.330620000000000
H       1.383980000000000     -3.530210000000000      1.737360000000000
H      -1.392600000000000      2.492870000000000      1.724920000000000
C      -2.313950000000000      3.028210000000000     -0.192070000000000
C      -1.090160000000000      2.692750000000000      0.677330000000000
C      -3.351920000000000      1.897270000000000     -0.335180000000000
H      -2.810600000000000      3.924230000000000      0.234730000000000
H      -1.957620000000000      3.276810000000000     -1.214690000000000
H      -4.181640000000000      2.265130000000000     -0.980260000000000
H      -2.893050000000000      1.029650000000000     -0.850620000000000
C      -3.958690000000000      1.445590000000000      0.993110000000000
H      -0.367450000000000      3.531000000000000      0.657840000000000
H      -3.177240000000000      1.023810000000000      1.653900000000000
H      -4.453340000000000      2.296050000000000      1.506170000000000
H      -4.716990000000000      0.653300000000000      0.807480000000000
C      -1.152440000000000     -1.839000000000000     -2.579180000000000
C      -1.279140000000000     -0.496230000000000     -2.845040000000000
C      -0.097070000000000      0.117940000000000     -2.468120000000000
C       0.713350000000000     -0.821880000000000     -1.963470000000000
N       0.116070000000000     -2.091670000000000     -2.031490000000000
C       2.069850000000000     -0.571220000000000     -1.354490000000000
N       1.918790000000000      0.334140000000000     -0.210290000000000
C       3.134930000000000      0.849930000000000      0.465330000000000
H      -2.159440000000000     -0.015620000000000     -3.253260000000000
H      -1.907260000000000     -2.593190000000000     -2.744190000000000
H       0.112710000000000      1.177240000000000     -2.520040000000000
H       2.734130000000000     -0.142220000000000     -2.127250000000000
H       2.478910000000000     -1.543910000000000     -1.006800000000000
C       3.923250000000000      1.785630000000000     -0.471700000000000
C       2.707930000000000      1.643050000000000      1.710150000000000
C       4.050270000000000     -0.313350000000000      0.917910000000000
H       3.292540000000000      2.643800000000000     -0.784150000000000
H       4.828810000000000      2.178080000000000      0.041420000000000
H       4.273540000000000      1.252750000000000     -1.378510000000000
H       2.164950000000000      0.990050000000000      2.424730000000000
H       3.597380000000000      2.064190000000000      2.231060000000000
H       2.041030000000000      2.483580000000000      1.426090000000000
H       3.506470000000000     -1.002440000000000      1.598640000000000
H       4.423160000000000     -0.898050000000000      0.051330000000000
H       4.940640000000000      0.072800000000000      1.461640000000000
Na     11.420240000000000      0.389230000000000      9.886290000000001
C       9.011580000000000     -1.823440000000000     10.192880000000001
C       8.423560000000000      0.152740000000000     11.219099999999999
O       9.431410000000000     -0.827820000000000     11.101380000000001
C      10.096259999999999     -2.885730000000000     10.083990000000000
C       8.883749999999999      1.229910000000000     12.190329999999999
H       8.081849999999999     -2.322070000000000     10.551320000000000
H       8.855190000000000     -1.391170000000000      9.178280000000001
H       8.228070000000001      0.640730000000000     10.236789999999999
H       7.491100000000000     -0.292600000000000     11.630000000000001
H       9.815000000000000      1.707840000000000     11.818930000000000
H       8.095670000000000      2.006480000000000     12.289260000000001
H       9.076829999999999      0.785350000000000     13.189800000000000
H      10.276450000000001     -3.351320000000000     11.076309999999999
H       9.779400000000001     -3.674680000000000      9.369450000000001
H      11.041910000000000     -2.430460000000000      9.720039999999999
Na      9.371280000000000     -2.049090000000000     13.441440000000000
Mg      3.162230000000000     -0.743320000000000      9.390530000000000
C       4.137530000000000     -1.610840000000000      6.443580000000000
C       3.929670000000000      0.754750000000000      6.633500000000000
O       3.388510000000000     -0.515160000000000      6.936860000000000
C       5.565250000000000     -1.690190000000000      6.987100000000000
C       3.775050000000000      1.106280000000000      5.160970000000000
H       3.616210000000000     -2.521170000000000      6.798270000000000
H       4.106280000000000     -1.668470000000000      5.337150000000000
H       3.343310000000000      1.496870000000000      7.217630000000000
H       4.974600000000000      0.873700000000000      6.984650000000000
H       2.711290000000000      0.995780000000000      4.864210000000000
H       4.092230000000000      2.157040000000000      4.997990000000000
H       4.408920000000000      0.447930000000000      4.533590000000000
H       5.566560000000000     -1.578540000000000      8.088970000000000
H       6.002220000000000     -2.676220000000000      6.724680000000000
H       6.204850000000000     -0.905330000000000      6.537920000000000
H       5.256030000000000     -0.303150000000000     10.907970000000001
C       4.048000000000000      1.500420000000000     11.034770000000000
C       4.701770000000000      0.386630000000000     10.241830000000000
C       3.015860000000000      0.923690000000000     12.009530000000000
H       4.844830000000000      2.047460000000000     11.579129999999999
H       3.533230000000000      2.196640000000000     10.335910000000000
H       2.185030000000000      0.456880000000000     11.438060000000000
H       3.482530000000000      0.143680000000000     12.648130000000000
C       2.454880000000000      2.013520000000000     12.913550000000001
H       5.380310000000000      0.792420000000000      9.463970000000000
H       3.276120000000000      2.448840000000000     13.522160000000000
H       1.978210000000000      2.815920000000000     12.311790000000000
H       1.697830000000000      1.577550000000000     13.598640000000000
C      -0.479370000000000     -0.197690000000000     10.659970000000000
C       0.025790000000000      0.420880000000000      9.537330000000001
C       0.605170000000000     -0.561740000000000      8.755120000000000
C       0.474490000000000     -1.732860000000000      9.382669999999999
N      -0.232830000000000     -1.574810000000000     10.595820000000000
C       0.980380000000000     -3.065630000000000      8.904560000000000
N       2.453850000000000     -3.129350000000000      8.939790000000000
C       3.077530000000000     -3.851070000000000     10.076950000000000
H      -0.019090000000000      1.480570000000000      9.326589999999999
H      -0.986310000000000      0.295830000000000     11.477790000000001
H       1.088590000000000     -0.398970000000000      7.801840000000000
H       0.636740000000000     -3.223760000000000      7.859830000000000
H       0.522780000000000     -3.855830000000000      9.520700000000000
C       2.710620000000000     -5.349330000000000     10.043030000000000
C       4.607290000000000     -3.738710000000000      9.925150000000000
C       2.688540000000000     -3.230280000000000     11.435660000000000
H       2.973490000000000     -5.783720000000000      9.054910000000000
H       3.265410000000000     -5.902300000000000     10.831060000000001
H       1.634670000000000     -5.526420000000000     10.231180000000000
H       4.930970000000000     -2.680040000000000      9.986319999999999
H       5.131230000000000     -4.294310000000000     10.734340000000000
H       4.937990000000000     -4.152920000000000      8.948359999999999
H       3.015660000000000     -2.170300000000000     11.492480000000000
H       1.595060000000000     -3.272240000000000     11.603490000000001
H       3.176210000000000     -3.782970000000000     12.268200000000000
