140

Mg     -0.140610000000000     -0.230700000000000     -0.379770000000000
C      -2.417620000000000      2.045480000000000      1.012330000000000
C      -1.642910000000000      0.393240000000000      2.549670000000000
O      -1.451780000000000      1.054970000000000      1.313290000000000
C      -2.381830000000000      3.242960000000000      1.956880000000000
C      -2.934350000000000     -0.418000000000000      2.615590000000000
H      -2.172020000000000      2.421100000000000     -0.004510000000000
H      -3.439390000000000      1.627070000000000      0.937820000000000
H      -0.813240000000000     -0.334880000000000      2.647030000000000
H      -1.528280000000000      1.080370000000000      3.412290000000000
H      -3.007500000000000     -1.093250000000000      1.738080000000000
H      -2.931090000000000     -1.031570000000000      3.540490000000000
H      -3.817970000000000      0.249100000000000      2.649900000000000
H      -1.359630000000000      3.668540000000000      2.009130000000000
H      -3.074490000000000      4.022440000000000      1.575750000000000
H      -2.716640000000000      2.950770000000000      2.971580000000000
H      -2.132490000000000      0.770160000000000     -2.348700000000000
C      -3.373290000000000     -0.745040000000000     -1.358570000000000
C      -2.062910000000000     -0.258470000000000     -1.938530000000000
C      -4.417270000000000     -0.818330000000000     -2.459880000000000
H      -3.228390000000000     -1.747180000000000     -0.904910000000000
H      -3.703780000000000     -0.046450000000000     -0.565450000000000
H      -4.547440000000000      0.191320000000000     -2.907030000000000
H      -4.067650000000000     -1.522210000000000     -3.246300000000000
C      -5.749490000000000     -1.299860000000000     -1.908360000000000
H      -1.642120000000000     -0.973240000000000     -2.675760000000000
H      -5.637030000000000     -2.313010000000000     -1.466570000000000
H      -6.116900000000000     -0.598280000000000     -1.129090000000000
H      -6.487650000000000     -1.343880000000000     -2.734430000000000
C       4.651930000000000      0.771980000000000     -0.622600000000000
C       4.866040000000000     -0.558920000000000     -0.876870000000000
C       3.949240000000000     -1.284780000000000     -0.125660000000000
C       3.184580000000000     -0.418960000000000      0.553290000000000
N       3.599420000000000      0.897970000000000      0.291740000000000
C       2.069770000000000     -0.716680000000000      1.536580000000000
N       0.847760000000000     -1.324780000000000      0.981240000000000
C       0.682680000000000     -2.755480000000000      0.684940000000000
H       5.623290000000000     -0.950090000000000     -1.543690000000000
H       5.196190000000000      1.604620000000000     -1.047180000000000
H       3.895470000000000     -2.358280000000000     -0.100320000000000
H       1.750020000000000      0.268820000000000      1.940710000000000
H       2.449950000000000     -1.289600000000000      2.400470000000000
C       1.549580000000000     -3.616670000000000      1.606870000000000
C      -0.797160000000000     -3.104280000000000      0.937610000000000
C       0.973830000000000     -3.032970000000000     -0.804140000000000
H       1.299520000000000     -3.385290000000000      2.664600000000000
H       1.365430000000000     -4.693640000000000      1.421430000000000
H       2.623300000000000     -3.412160000000000      1.441680000000000
H      -1.456150000000000     -2.485570000000000      0.295590000000000
H      -1.003340000000000     -4.172280000000000      0.709240000000000
H      -1.077480000000000     -2.906790000000000      1.994120000000000
H       0.267070000000000     -2.476120000000000     -1.458980000000000
H       1.988660000000000     -2.731300000000000     -1.098400000000000
H       0.858520000000000     -4.115530000000000     -1.025300000000000
C       1.486950000000000      1.958360000000000     -1.970940000000000
C       1.047960000000000      2.811310000000000      0.185370000000000
O       0.635310000000000      1.932110000000000     -0.842180000000000
C       1.606050000000000      0.554040000000000     -2.567450000000000
C       0.683480000000000      4.244810000000000     -0.139860000000000
H       1.037500000000000      2.625510000000000     -2.733660000000000
H       2.514560000000000      2.312430000000000     -1.739090000000000
H       0.533450000000000      2.511580000000000      1.119990000000000
H       2.122690000000000      2.740390000000000      0.420220000000000
H      -0.406380000000000      4.322140000000000     -0.330310000000000
H       0.959160000000000      4.891320000000000      0.718680000000000
H       1.245860000000000      4.572730000000000     -1.037350000000000
H       2.057780000000000     -0.150340000000000     -1.845350000000000
H       0.611470000000000      0.156530000000000     -2.853040000000000
H       2.249200000000000      0.581630000000000     -3.470980000000000
Na      1.045670000000000      4.947510000000000     10.671730000000000
C       2.718260000000000      2.284700000000000     11.621540000000000
C       1.268340000000000      1.756140000000000      9.911940000000000
O       1.385340000000000      2.388140000000000     11.168150000000001
C       2.832900000000000      2.953660000000000     12.983990000000000
C      -0.166710000000000      1.879090000000000      9.421049999999999
H       3.016010000000000      1.217600000000000     11.740410000000001
H       3.413390000000000      2.807690000000000     10.925840000000001
H       1.928870000000000      2.244260000000000      9.159150000000000
H       1.501740000000000      0.672150000000000      9.996570000000000
H      -0.445640000000000      2.949160000000000      9.317570000000000
H      -0.268030000000000      1.383700000000000      8.431970000000000
H      -0.858950000000000      1.390740000000000     10.139510000000000
H       2.160730000000000      2.453470000000000     13.713340000000001
H       3.878480000000000      2.881600000000000     13.351400000000000
H       2.552060000000000      4.025750000000000     12.908239999999999
Na      0.047560000000000      0.785960000000000     12.784820000000000
Mg      5.235280000000000     -1.743850000000000      7.952500000000000
C       7.601800000000000      0.399210000000000      8.389699999999999
C       6.507710000000000      0.720890000000000      6.297570000000000
O       7.028710000000000     -0.195270000000000      7.239350000000000
C       6.626720000000000      1.243250000000000      9.212350000000001
C       7.606780000000000      1.470970000000000      5.558240000000000
H       7.917550000000000     -0.438770000000000      9.041140000000000
H       8.533280000000000      0.949780000000000      8.149970000000000
H       5.948930000000000      0.120760000000000      5.546990000000000
H       5.754700000000000      1.407370000000000      6.734820000000000
H       8.323140000000000      0.745500000000000      5.118480000000000
H       7.155400000000000      2.076480000000000      4.745250000000000
H       8.142350000000000      2.153820000000000      6.247700000000000
H       5.687440000000000      0.684650000000000      9.391750000000000
H       7.091300000000000      1.489720000000000     10.189909999999999
H       6.394670000000000      2.195980000000000      8.697260000000000
H       2.982390000000000     -0.751220000000000      8.856260000000001
C       2.581600000000000     -1.343870000000000      6.802630000000000
C       3.443360000000000     -0.671160000000000      7.852280000000000
C       2.455930000000000     -2.841890000000000      7.099550000000000
H       1.586560000000000     -0.853610000000000      6.809940000000000
H       3.050260000000000     -1.213210000000000      5.801820000000000
H       3.451700000000000     -3.325210000000000      7.001340000000000
H       2.091240000000000     -3.000320000000000      8.136839999999999
C       1.477990000000000     -3.504860000000000      6.138850000000000
H       3.625350000000000      0.393530000000000      7.600530000000000
H       0.469610000000000     -3.056810000000000      6.268330000000000
H       1.809380000000000     -3.368010000000000      5.088640000000000
H       1.415400000000000     -4.591080000000000      6.359560000000000
C       5.428310000000000     -5.226630000000000      6.221030000000000
C       5.865270000000000     -4.064460000000000      5.622250000000000
C       6.691120000000000     -3.425980000000000      6.529250000000000
C       6.744550000000000     -4.157140000000000      7.643610000000000
N       5.977220000000000     -5.338150000000000      7.503120000000000
C       7.505240000000000     -3.828320000000000      8.897220000000001
N       6.915750000000000     -2.671790000000000      9.599690000000001
C       6.060610000000000     -2.955200000000000     10.778969999999999
H       5.594450000000000     -3.723720000000000      4.632970000000000
H       4.755950000000000     -5.949210000000000      5.777860000000000
H       7.198200000000000     -2.485110000000000      6.359040000000000
H       8.555280000000000     -3.587600000000000      8.624430000000000
H       7.532590000000000     -4.723730000000000      9.537610000000001
C       6.883400000000000     -3.608080000000000     11.909179999999999
C       5.523440000000000     -1.609970000000000     11.306290000000001
C       4.849270000000000     -3.839100000000000     10.412770000000000
H       7.764950000000000     -2.977140000000000     12.152080000000000
H       6.264590000000000     -3.718420000000000     12.825360000000000
H       7.237890000000000     -4.622130000000000     11.643630000000000
H       4.886210000000000     -1.116420000000000     10.544950000000000
H       4.900950000000000     -1.757220000000000     12.216670000000001
H       6.359970000000000     -0.925240000000000     11.563929999999999
H       4.213610000000000     -3.340040000000000      9.650740000000001
H       5.168730000000000     -4.822600000000000     10.017390000000001
H       4.221210000000000     -4.027510000000000     11.310750000000001
