155

Mg     -0.153240000000000     -0.428980000000000      0.358840000000000
C      -0.422600000000000      1.760020000000000      2.671510000000000
C      -2.442100000000000      0.517590000000000      2.416590000000000
O      -1.351190000000000      1.158610000000000      1.790000000000000
C       0.234380000000000      0.786550000000000      3.649470000000000
C      -3.414960000000000      1.516970000000000      3.021220000000000
H       0.388150000000000      2.153970000000000      2.031670000000000
H      -0.847030000000000      2.649360000000000      3.178190000000000
H      -2.981310000000000     -0.035590000000000      1.616770000000000
H      -2.129510000000000     -0.257410000000000      3.146140000000000
H      -3.687000000000000      2.277460000000000      2.259240000000000
H      -4.331250000000000      0.985840000000000      3.352000000000000
H      -2.955350000000000      2.013660000000000      3.899060000000000
H       0.574190000000000     -0.125540000000000      3.120070000000000
H       1.113310000000000      1.276780000000000      4.117980000000000
H      -0.473350000000000      0.504810000000000      4.453740000000000
H       0.644540000000000     -2.657840000000000      1.436880000000000
C      -1.165030000000000     -3.143950000000000      0.322570000000000
C      -0.381720000000000     -2.269760000000000      1.280210000000000
C      -0.508640000000000     -3.147250000000000     -1.062710000000000
H      -1.195580000000000     -4.165930000000000      0.750050000000000
H      -2.201670000000000     -2.750440000000000      0.225460000000000
H      -0.584790000000000     -2.135260000000000     -1.513170000000000
H       0.566920000000000     -3.411210000000000     -0.982090000000000
C      -1.183900000000000     -4.160250000000000     -1.978080000000000
H      -0.904260000000000     -2.165400000000000      2.252080000000000
H      -1.061560000000000     -5.178300000000000     -1.552300000000000
H      -2.265940000000000     -3.935180000000000     -2.085240000000000
H      -0.707970000000000     -4.136610000000000     -2.980750000000000
C      -0.936960000000000     -0.080100000000000     -3.351940000000000
C      -1.876340000000000      0.206650000000000     -2.378030000000000
C      -1.258390000000000      1.046810000000000     -1.472680000000000
C      -0.009260000000000      1.210600000000000     -1.898810000000000
N       0.173230000000000      0.507800000000000     -3.102030000000000
C       1.079950000000000      2.007930000000000     -1.227290000000000
N       1.534130000000000      1.360760000000000      0.016680000000000
C       2.812210000000000      0.607570000000000     -0.017700000000000
H      -2.887710000000000     -0.176930000000000     -2.320680000000000
H      -1.087560000000000     -0.718780000000000     -4.209090000000000
H      -1.704750000000000      1.467740000000000     -0.586110000000000
H       0.682090000000000      3.015840000000000     -0.982400000000000
H       1.908580000000000      2.147470000000000     -1.939950000000000
C       3.992020000000000      1.549680000000000     -0.327180000000000
C       3.040510000000000      0.008340000000000      1.384830000000000
C       2.771050000000000     -0.553830000000000     -1.033760000000000
H       3.990430000000000      2.406500000000000      0.379670000000000
H       4.957090000000000      1.008210000000000     -0.224370000000000
H       3.955950000000000      1.939980000000000     -1.361980000000000
H       2.239050000000000     -0.715490000000000      1.637720000000000
H       4.009580000000000     -0.535630000000000      1.438530000000000
H       3.045170000000000      0.806430000000000      2.158120000000000
H       1.992990000000000     -1.296260000000000     -0.756190000000000
H       2.559970000000000     -0.188300000000000     -2.057070000000000
H       3.750400000000000     -1.080320000000000     -1.061150000000000
Na     -3.894040000000000     -8.941220000000000      1.311660000000000
C      -2.391610000000000     -7.747160000000000      3.864480000000000
C      -1.668220000000000     -9.973670000000000      3.704790000000000
O      -2.740320000000000     -9.071190000000000      3.508050000000000
C      -1.798630000000000     -7.001610000000000      2.672630000000000
C      -1.697610000000000    -10.567510000000000      5.110860000000000
H      -3.320030000000000     -7.223280000000000      4.176170000000000
H      -1.705130000000000     -7.703900000000000      4.739870000000000
H      -1.783620000000000    -10.801130000000001      2.972390000000000
H      -0.676810000000000     -9.512860000000000      3.498060000000000
H      -2.652750000000000    -11.104369999999999      5.286860000000000
H      -0.862170000000000    -11.289310000000000      5.222790000000000
H      -1.583090000000000     -9.771350000000000      5.875040000000000
H      -2.521940000000000     -6.987020000000000      1.830710000000000
H      -1.570090000000000     -5.955690000000000      2.965350000000000
H      -0.860890000000000     -7.487940000000000      2.335160000000000
C      -1.017240000000000     -9.598570000000000     -0.314380000000000
C      -2.887910000000000     -9.651550000000000     -1.790510000000000
O      -2.427140000000000     -9.602169999999999     -0.451490000000000
C      -0.341390000000000     -8.371549999999999     -0.927570000000000
C      -2.499880000000000    -10.935860000000000     -2.522710000000000
H      -0.808520000000000     -9.566210000000000      0.775490000000000
H      -0.565530000000000    -10.545570000000000     -0.674260000000000
H      -3.997880000000000     -9.633430000000001     -1.741640000000000
H      -2.603030000000000     -8.744070000000001     -2.361970000000000
H      -2.823190000000000    -11.818820000000001     -1.933260000000000
H      -3.001210000000000    -10.959320000000000     -3.512810000000000
H      -1.406020000000000    -10.980499999999999     -2.697760000000000
H      -0.796200000000000     -7.444170000000000     -0.521420000000000
H       0.738930000000000     -8.384259999999999     -0.672300000000000
H      -0.425170000000000     -8.378640000000001     -2.033100000000000
Na     -4.639090000000000    -10.054690000000001      4.591260000000000
C      -6.762400000000000     -9.481389999999999      2.089850000000000
C      -5.773320000000000    -11.598310000000000      1.945700000000000
O      -5.624020000000000    -10.263740000000000      2.386330000000000
C      -6.692960000000000     -8.192119999999999      2.898980000000000
C      -5.513110000000000    -11.736649999999999      0.447080000000000
H      -6.769570000000000     -9.209940000000000      1.012500000000000
H      -7.710010000000000     -9.995580000000000      2.367140000000000
H      -5.011210000000000    -12.206700000000000      2.478500000000000
H      -6.760000000000000    -12.027900000000001      2.227700000000000
H      -4.501080000000000    -11.355680000000000      0.199010000000000
H      -5.571190000000000    -12.807499999999999      0.159920000000000
H      -6.270410000000000    -11.176600000000001     -0.138600000000000
H      -5.759710000000000     -7.638090000000000      2.660950000000000
H      -7.564170000000000     -7.547120000000000      2.658570000000000
H      -6.707550000000000     -8.420690000000000      3.985090000000000
C      -7.174270000000000    -10.520670000000001      6.676640000000000
C      -5.957590000000000     -8.670660000000000      7.352970000000000
O      -6.126960000000000     -9.640440000000000      6.347960000000000
C      -7.286160000000000    -11.559390000000000      5.568650000000000
C      -4.834150000000000     -7.736250000000000      6.924390000000000
H      -6.961360000000000    -11.055289999999999      7.629840000000000
H      -8.142360000000000     -9.974620000000000      6.737040000000000
H      -6.882130000000000     -8.063120000000000      7.477740000000000
H      -5.664130000000000     -9.146250000000000      8.315890000000000
H      -5.098080000000000     -7.244890000000000      5.963470000000000
H      -4.670690000000000     -6.954970000000000      7.695380000000000
H      -3.892410000000000     -8.310580000000000      6.786440000000000
H      -6.333980000000000    -12.125579999999999      5.478080000000000
H      -8.109640000000001    -12.269439999999999      5.789840000000000
H      -7.495920000000000    -11.057440000000000      4.601480000000000
Mg     -2.919660000000000    -15.429660000000000      1.556690000000000
H      -5.601030000000000    -16.540610000000001      2.818700000000000
C      -4.923370000000000    -18.340769999999999      1.769970000000000
C      -5.055570000000000    -16.831880000000002      1.898210000000000
C      -4.183240000000000    -18.977360000000001      2.954470000000000
H      -5.945740000000000    -18.769060000000000      1.711440000000000
H      -4.388050000000000    -18.583570000000002      0.827450000000000
H      -4.715360000000000    -18.749549999999999      3.903660000000000
H      -4.192620000000000    -20.077600000000000      2.804160000000000
C      -2.724420000000000    -18.530290000000001      3.069650000000000
H      -5.564020000000000    -16.409910000000000      1.004640000000000
H      -2.658180000000000    -17.448960000000000      3.305230000000000
H      -2.233200000000000    -19.096200000000000      3.890450000000000
H      -2.176300000000000    -18.736599999999999      2.125510000000000
C      -1.557020000000000    -14.591469999999999      4.302600000000000
C      -0.258320000000000    -14.220850000000000      4.610580000000000
C       0.470360000000000    -14.282330000000000      3.432440000000000
C      -0.409290000000000    -14.707960000000000      2.461620000000000
N      -1.628000000000000    -14.875529999999999      2.991980000000000
C      -0.122690000000000    -14.959020000000001      0.993000000000000
N      -1.275710000000000    -15.646409999999999      0.373550000000000
C      -1.245630000000000    -16.054990000000000     -1.041970000000000
H       0.117020000000000    -13.933900000000000      5.583550000000000
H      -2.390330000000000    -14.645650000000000      4.990860000000000
H       1.519970000000000    -14.057499999999999      3.302350000000000
H       0.068140000000000    -13.978910000000001      0.508880000000000
H       0.772430000000000    -15.604590000000000      0.918060000000000
C      -0.157670000000000    -17.126930000000002     -1.250730000000000
C      -2.609300000000000    -16.670980000000000     -1.402400000000000
C      -0.985380000000000    -14.846730000000001     -1.958190000000000
H      -0.350160000000000    -18.001960000000000     -0.591380000000000
H      -0.146360000000000    -17.477720000000001     -2.304710000000000
H       0.851630000000000    -16.730789999999999     -1.019350000000000
H      -3.425210000000000    -15.928459999999999     -1.270830000000000
H      -2.617190000000000    -17.013449999999999     -2.461250000000000
H      -2.826370000000000    -17.547219999999999     -0.755500000000000
H      -1.769680000000000    -14.075310000000000     -1.809350000000000
H       0.005620000000000    -14.393820000000000     -1.749650000000000
H      -0.993450000000000    -15.159520000000001     -3.024750000000000
