125

Mg     -0.002380000000000      0.311020000000000     -0.382510000000000
C      -1.663950000000000     -2.694280000000000     -1.010510000000000
C       0.685720000000000     -2.940710000000000     -0.670060000000000
O      -0.461720000000000     -2.125170000000000     -0.526490000000000
C      -2.118720000000000     -3.920860000000000     -0.226380000000000
C       1.052440000000000     -3.230600000000000     -2.123180000000000
H      -2.447720000000000     -1.915660000000000     -0.888020000000000
H      -1.621180000000000     -2.907660000000000     -2.095490000000000
H       1.532580000000000     -2.366070000000000     -0.245370000000000
H       0.622350000000000     -3.861140000000000     -0.054990000000000
H       1.108390000000000     -2.284600000000000     -2.700580000000000
H       2.044050000000000     -3.728200000000000     -2.154940000000000
H       0.312020000000000     -3.910490000000000     -2.588340000000000
H      -2.177040000000000     -3.692120000000000      0.856740000000000
H      -3.125920000000000     -4.222440000000000     -0.583180000000000
H      -1.425170000000000     -4.768530000000000     -0.392080000000000
H      -2.350370000000000      0.648610000000000     -2.149850000000000
C      -0.909950000000000     -0.083130000000000     -3.637700000000000
C      -1.284450000000000      0.758510000000000     -2.437530000000000
C      -1.699840000000000      0.385640000000000     -4.846910000000000
H       0.177840000000000      0.012710000000000     -3.833650000000000
H      -1.134010000000000     -1.146150000000000     -3.423660000000000
H      -2.786380000000000      0.287500000000000     -4.632390000000000
H      -1.462560000000000      1.453880000000000     -5.043540000000000
C      -1.351240000000000     -0.443010000000000     -6.072650000000000
H      -0.990400000000000      1.821250000000000     -2.561700000000000
H      -0.269000000000000     -0.346780000000000     -6.304620000000000
H      -1.594490000000000     -1.512220000000000     -5.893530000000000
H      -1.941710000000000     -0.075980000000000     -6.936180000000000
C       0.264860000000000      2.144600000000000      4.114720000000000
C       1.247620000000000      3.010930000000000      3.688230000000000
C       2.018630000000000      2.320540000000000      2.765570000000000
C       1.481390000000000      1.108490000000000      2.652170000000000
N       0.385010000000000      1.014020000000000      3.523580000000000
C       1.948190000000000     -0.065450000000000      1.812700000000000
N       1.848010000000000      0.088110000000000      0.349350000000000
C       2.806370000000000      0.825250000000000     -0.486340000000000
H       1.391320000000000      4.028450000000000      4.029720000000000
H      -0.508830000000000      2.351030000000000      4.840040000000000
H       2.888850000000000      2.707730000000000      2.266000000000000
H       1.276050000000000     -0.912940000000000      2.068590000000000
H       2.963040000000000     -0.379580000000000      2.112210000000000
C       4.209140000000000      0.796470000000000      0.124290000000000
C       2.855580000000000      0.120390000000000     -1.856710000000000
C       2.313540000000000      2.266900000000000     -0.728850000000000
H       4.521840000000000     -0.260060000000000      0.274940000000000
H       4.935790000000000      1.295280000000000     -0.547250000000000
H       4.222650000000000      1.313940000000000      1.100690000000000
H       1.849820000000000      0.106560000000000     -2.322440000000000
H       3.545950000000000      0.643530000000000     -2.553160000000000
H       3.190350000000000     -0.933340000000000     -1.750950000000000
H       1.340330000000000      2.270880000000000     -1.268580000000000
H       2.163440000000000      2.823450000000000      0.206310000000000
H       3.046700000000000      2.826410000000000     -1.348150000000000
C      -2.203410000000000      1.438430000000000      1.581200000000000
C      -1.843480000000000     -0.831810000000000      2.114680000000000
O      -1.788600000000000      0.168630000000000      1.117440000000000
C      -1.358040000000000      2.535040000000000      0.928960000000000
C      -3.267010000000000     -1.297810000000000      2.342140000000000
H      -3.261240000000000      1.590480000000000      1.287080000000000
H      -2.113550000000000      1.555020000000000      2.682540000000000
H      -1.236120000000000     -1.692460000000000      1.770830000000000
H      -1.380880000000000     -0.525740000000000      3.068700000000000
H      -3.706110000000000     -1.645710000000000      1.384600000000000
H      -3.263760000000000     -2.131000000000000      3.073570000000000
H      -3.869340000000000     -0.459810000000000      2.747080000000000
H      -0.291290000000000      2.431830000000000      1.196980000000000
H      -1.434080000000000      2.494650000000000     -0.176030000000000
H      -1.704480000000000      3.531380000000000      1.272330000000000
Na      1.678410000000000    -10.835850000000001      6.326900000000000
C       0.785900000000000    -13.902080000000000      6.952490000000000
C      -0.655700000000000    -12.422760000000000      7.973290000000000
O       0.700980000000000    -12.762110000000000      7.780790000000000
C       2.250350000000000    -14.267310000000000      6.753640000000000
C      -0.740770000000000    -11.185079999999999      8.855390000000000
H       0.280190000000000    -14.774210000000000      7.426300000000000
H       0.348480000000000    -13.694760000000000      5.949340000000000
H      -1.145710000000000    -12.180870000000001      7.002590000000000
H      -1.198170000000000    -13.246890000000000      8.490410000000001
H      -0.220850000000000    -10.332050000000001      8.369560000000000
H      -1.805120000000000    -10.911330000000000      9.016170000000001
H      -0.269120000000000    -11.385770000000001      9.841030000000000
H       2.724750000000000    -14.493370000000001      7.732240000000000
H       2.328650000000000    -15.163370000000000      6.101910000000000
H       2.792750000000000    -13.425730000000000      6.272710000000000
Na      1.468330000000000    -13.646750000000001     10.140980000000001
Mg      0.171490000000000     -6.010780000000000      7.128600000000000
H      -0.880010000000000     -3.743930000000000      9.048959999999999
C      -0.278680000000000     -2.514880000000000      7.336160000000000
C      -0.110790000000000     -3.717180000000000      8.250730000000001
C      -1.649110000000000     -2.475280000000000      6.645550000000000
H      -0.159140000000000     -1.599600000000000      7.952480000000000
H       0.521720000000000     -2.525290000000000      6.566080000000000
H      -2.459120000000000     -2.454080000000000      7.406880000000000
H      -1.699490000000000     -1.536430000000000      6.054510000000000
C      -1.882590000000000     -3.646310000000000      5.688810000000000
H       0.905750000000000     -3.724210000000000      8.700080000000000
H      -1.931130000000000     -4.606590000000000      6.240790000000000
H      -2.850660000000000     -3.499750000000000      5.163700000000000
H      -1.075070000000000     -3.697340000000000      4.927410000000000
C      -2.535800000000000     -7.671240000000000      7.014500000000000
C      -2.943060000000000     -8.711819999999999      6.195750000000000
C      -1.904610000000000     -8.960860000000000      5.311240000000000
C      -0.918140000000000     -8.048719999999999      5.614430000000000
N      -1.301120000000000     -7.289640000000000      6.649530000000000
C       0.427850000000000     -7.875820000000000      4.936390000000000
N       1.064380000000000     -6.626830000000000      5.405510000000000
C       2.366200000000000     -6.191400000000000      4.869180000000000
H      -3.889160000000000     -9.234130000000000      6.238760000000000
H      -3.104030000000000     -7.228640000000000      7.822260000000000
H      -1.877920000000000     -9.708299999999999      4.530440000000000
H       1.050600000000000     -8.758920000000000      5.182800000000000
H       0.263280000000000     -7.816550000000000      3.844450000000000
C       2.226340000000000     -5.866650000000000      3.368680000000000
C       2.796060000000000     -4.909620000000000      5.605010000000000
C       3.439730000000000     -7.273380000000000      5.082570000000000
H       1.454160000000000     -5.080290000000000      3.216850000000000
H       3.188500000000000     -5.498900000000000      2.952990000000000
H       1.931340000000000     -6.762560000000000      2.786090000000000
H       2.915920000000000     -5.099830000000000      6.693030000000000
H       3.766600000000000     -4.536760000000000      5.207940000000000
H       2.038780000000000     -4.108460000000000      5.471280000000000
H       3.542700000000000     -7.508320000000000      6.163580000000000
H       3.181250000000000     -8.204670000000000      4.537940000000000
H       4.423490000000000     -6.924330000000000      4.700580000000000
