140

Mg      0.265200000000000      0.972700000000000      0.052150000000000
H       1.617060000000000      1.712830000000000     -2.538140000000000
C       3.331020000000000      1.693040000000000     -1.153680000000000
C       1.894590000000000      2.042610000000000     -1.516410000000000
C       3.600960000000000      0.179910000000000     -1.079150000000000
H       4.004880000000000      2.169240000000000     -1.894780000000000
H       3.547290000000000      2.120100000000000     -0.150420000000000
H       4.675210000000000      0.041940000000000     -0.827460000000000
H       2.998230000000000     -0.280010000000000     -0.267260000000000
C       3.309900000000000     -0.560420000000000     -2.383030000000000
H       1.692160000000000      3.126240000000000     -1.393320000000000
H       2.224720000000000     -0.531750000000000     -2.614300000000000
H       3.882750000000000     -0.110720000000000     -3.220230000000000
H       3.605960000000000     -1.625940000000000     -2.276590000000000
C       1.608590000000000     -0.852300000000000      2.279010000000000
C       1.078060000000000     -1.841770000000000      3.091450000000000
C      -0.263770000000000     -1.954790000000000      2.762260000000000
C      -0.491790000000000     -1.045180000000000      1.756620000000000
N       0.640970000000000     -0.381790000000000      1.478770000000000
C      -1.798070000000000     -0.759470000000000      1.043050000000000
N      -1.553970000000000      0.092320000000000     -0.138730000000000
C      -2.664250000000000      0.483170000000000     -1.026800000000000
H       1.605070000000000     -2.412230000000000      3.842930000000000
H       2.633850000000000     -0.501120000000000      2.282900000000000
H      -0.990180000000000     -2.627750000000000      3.197460000000000
H      -2.467670000000000     -0.249970000000000      1.766580000000000
H      -2.237890000000000     -1.720280000000000      0.719500000000000
C      -3.782090000000000      1.191080000000000     -0.239370000000000
C      -2.126670000000000      1.446820000000000     -2.101120000000000
C      -3.221230000000000     -0.770170000000000     -1.729230000000000
H      -3.384350000000000      2.093440000000000      0.272500000000000
H      -4.600090000000000      1.504350000000000     -0.923770000000000
H      -4.224940000000000      0.514360000000000      0.519970000000000
H      -1.309250000000000      0.972080000000000     -2.685380000000000
H      -2.936640000000000      1.733980000000000     -2.809120000000000
H      -1.729220000000000      2.373210000000000     -1.635320000000000
H      -2.415900000000000     -1.272930000000000     -2.308860000000000
H      -3.627740000000000     -1.496590000000000     -0.997190000000000
H      -4.044080000000000     -0.502390000000000     -2.424730000000000
Na      0.340140000000000      7.978360000000000     -6.327370000000000
C       1.833140000000000      9.185480000000000     -3.777110000000000
C       2.556130000000000      6.958990000000000     -3.936210000000000
O       1.483880000000000      7.861380000000000     -4.131870000000000
C       2.427010000000000      9.929150000000000     -4.969440000000000
C       2.528540000000000      6.364820000000000     -2.529930000000000
H       0.904860000000000      9.710410000000000     -3.466930000000000
H       2.519230000000000      9.228999999999999     -2.901500000000000
H       2.439420000000000      6.131990000000000     -4.668750000000000
H       3.547380000000000      7.419420000000000     -4.144600000000000
H       1.573280000000000      5.828610000000000     -2.352380000000000
H       3.363620000000000      5.641810000000000     -2.419020000000000
H       2.644510000000000      7.161050000000000     -1.766070000000000
H       1.703640000000000      9.944269999999999     -5.811430000000000
H       2.657030000000000     10.974750000000000     -4.676780000000000
H       3.364200000000000      9.441420000000001     -5.306640000000000
C       3.208970000000000      7.335140000000000     -7.956590000000000
C       1.337970000000000      7.280120000000000     -9.432930000000001
O       1.799220000000000      7.331120000000000     -8.094250000000001
C       3.885390000000000      8.560440000000000     -8.572369999999999
C       1.729770000000000      5.997130000000000    -10.165950000000000
H       3.417180000000000      7.369280000000000     -6.866640000000000
H       3.660780000000000      6.387510000000000     -8.314679999999999
H       0.228020000000000      7.294810000000000     -9.383100000000001
H       1.619920000000000      8.188680000000000    -10.004239999999999
H       1.413520000000000      5.110700000000000     -9.576770000000000
H       1.226100000000000      5.971870000000000    -11.154859999999999
H       2.823390000000000      5.958480000000000    -10.343710000000000
H       3.430360000000000      9.490600000000001     -8.171519999999999
H       4.965390000000000      8.547580000000000     -8.315170000000000
H       3.803140000000000      8.548600000000000     -9.677890000000000
Na     -0.414060000000000      6.882360000000000     -3.052720000000000
C      -2.533820000000000      7.452180000000000     -5.552190000000000
C      -1.544570000000000      5.335350000000000     -5.696480000000000
O      -1.395260000000000      6.670020000000000     -5.256220000000000
C      -2.464460000000000      8.741809999999999     -4.743400000000000
C      -1.286860000000000      5.196750000000000     -7.195650000000000
H      -2.541660000000000      7.723370000000000     -6.629580000000000
H      -3.480950000000000      6.937480000000000     -5.274210000000000
H      -0.781280000000000      4.727530000000000     -5.164740000000000
H      -2.530340000000000      4.905090000000000     -5.412500000000000
H      -0.275010000000000      5.576970000000000     -7.445710000000000
H      -1.345870000000000      4.125920000000000     -7.482500000000000
H      -2.044740000000000      5.756560000000000     -7.780630000000000
H      -1.532010000000000      9.297020000000000     -4.982010000000000
H      -3.336430000000000      9.385289999999999     -4.983370000000000
H      -2.478710000000000      8.513410000000000     -3.657240000000000
C      -2.945080000000000      6.406760000000000     -0.966460000000000
C      -1.728530000000000      8.258010000000001     -0.290680000000000
O      -1.898290000000000      7.287720000000000     -1.295140000000000
C      -3.056260000000000      5.368610000000000     -2.075140000000000
C      -0.605130000000000      9.192340000000000     -0.720300000000000
H      -2.731470000000000      5.871610000000000     -0.013740000000000
H      -3.913420000000000      6.952290000000000     -0.905620000000000
H      -2.652960000000000      8.865660000000000     -0.165990000000000
H      -1.434660000000000      7.782950000000000      0.672360000000000
H      -0.869340000000000      9.683370000000000     -1.681350000000000
H      -0.441040000000000      9.974110000000000      0.050090000000000
H       0.336630000000000      8.618010000000000     -0.858370000000000
H      -2.102360000000000      4.806620000000000     -2.167480000000000
H      -3.877330000000000      4.655440000000000     -1.854230000000000
H      -3.267370000000000      5.871080000000000     -3.041740000000000
Mg     -0.703280000000000     15.431760000000001     -7.038850000000000
H       2.147660000000000     16.553270000000001     -6.792430000000000
C       1.233940000000000     17.353290000000001     -4.964000000000000
C       1.209480000000000     17.037700000000001     -6.453610000000000
C       1.300470000000000     16.101540000000000     -4.073530000000000
H       2.096510000000000     18.019829999999999     -4.755320000000000
H       0.298430000000000     17.897900000000000     -4.711040000000000
H       1.317850000000000     16.441099999999999     -3.014950000000000
H       0.392410000000000     15.479160000000000     -4.220550000000000
C       2.534980000000000     15.236400000000000     -4.323310000000000
H       1.031230000000000     17.955069999999999     -7.050930000000000
H       2.505970000000000     14.795430000000000     -5.341330000000000
H       3.460780000000000     15.836869999999999     -4.203150000000000
H       2.552150000000000     14.400050000000000     -3.592650000000000
C      -2.404500000000000     14.501870000000000     -4.523240000000000
C      -3.261740000000000     13.429740000000001     -4.337300000000000
C      -3.276090000000000     12.713490000000000     -5.524550000000000
C      -2.412650000000000     13.366429999999999     -6.375870000000000
N      -1.905400000000000     14.448110000000000     -5.768180000000000
C      -2.052430000000000     12.993060000000000     -7.801630000000000
N      -0.911690000000000     13.815120000000000     -8.259020000000000
C      -0.349560000000000     13.647800000000000     -9.611050000000001
H      -3.818770000000000     13.197749999999999     -3.439950000000000
H      -2.168770000000000     15.269310000000001     -3.796940000000000
H      -3.840430000000000     11.816380000000001     -5.738080000000000
H      -2.948870000000000     13.162550000000000     -8.433160000000001
H      -1.764940000000000     11.924890000000000     -7.821720000000000
C      -1.428400000000000     13.855490000000000    -10.689370000000000
C       0.762700000000000     14.693619999999999     -9.811700000000000
C       0.271170000000000     12.243029999999999     -9.741860000000001
H      -1.877950000000000     14.867360000000000    -10.597820000000000
H      -0.986230000000000     13.755369999999999    -11.704350000000000
H      -2.233330000000000     13.097400000000000    -10.600790000000000
H       1.557380000000000     14.577280000000000     -9.043419999999999
H       1.230980000000000     14.579560000000001    -10.814930000000000
H       0.353450000000000     15.723839999999999     -9.735770000000000
H       1.054550000000000     12.096489999999999     -8.965850000000000
H      -0.494170000000000     11.450160000000000     -9.618710000000000
H       0.736930000000000     12.108350000000000    -10.741199999999999
