95

Mg     -0.749570000000000     -0.454110000000000     -0.278060000000000
H       0.070940000000000     -3.351420000000000     -0.154040000000000
C      -0.083350000000000     -3.045470000000000     -2.330720000000000
C      -0.587280000000000     -2.869630000000000     -0.905270000000000
C       1.262170000000000     -2.350370000000000     -2.601820000000000
H      -0.006620000000000     -4.131250000000000     -2.543570000000000
H      -0.833680000000000     -2.600180000000000     -3.019520000000000
H       1.541050000000000     -2.558020000000000     -3.657950000000000
H       1.158200000000000     -1.250530000000000     -2.485720000000000
C       2.394740000000000     -2.832400000000000     -1.697510000000000
H      -1.629960000000000     -3.230220000000000     -0.791150000000000
H       2.198580000000000     -2.550250000000000     -0.642100000000000
H       2.510620000000000     -3.933260000000000     -1.774900000000000
H       3.345550000000000     -2.348250000000000     -2.006900000000000
C       0.202770000000000      1.546590000000000     -2.554980000000000
C       0.575220000000000      2.880270000000000     -2.501540000000000
C       0.480160000000000      3.271080000000000     -1.174890000000000
C       0.070710000000000      2.160590000000000     -0.474770000000000
N      -0.100230000000000      1.130240000000000     -1.316530000000000
C      -0.194490000000000      2.048390000000000      1.013490000000000
N      -0.360310000000000      0.630500000000000      1.392890000000000
C      -0.591070000000000      0.249780000000000      2.798610000000000
H       0.875660000000000      3.500940000000000     -3.333750000000000
H       0.153240000000000      0.929900000000000     -3.444630000000000
H       0.692880000000000      4.248390000000000     -0.763450000000000
H      -1.116210000000000      2.626500000000000      1.231590000000000
H       0.667890000000000      2.476170000000000      1.556150000000000
C      -1.824100000000000      0.970580000000000      3.373790000000000
C      -0.825780000000000     -1.270590000000000      2.871070000000000
C       0.659700000000000      0.590680000000000      3.631700000000000
H      -2.727830000000000      0.731730000000000      2.773340000000000
H      -2.003610000000000      0.654420000000000      4.424350000000000
H      -1.677310000000000      2.070140000000000      3.377640000000000
H       0.041700000000000     -1.825450000000000      2.453240000000000
H      -0.964170000000000     -1.591390000000000      3.927480000000000
H      -1.733780000000000     -1.559640000000000      2.299710000000000
H       1.547260000000000      0.058410000000000      3.224030000000000
H       0.870270000000000      1.678900000000000      3.617840000000000
H       0.523370000000000      0.291510000000000      4.692140000000000
Na    -16.801340000000000      0.626480000000000      8.603249999999999
C     -14.519489999999999     -0.959000000000000      6.861710000000000
C     -13.567349999999999      0.047150000000000      8.701870000000000
O     -14.405410000000000      0.248180000000000      7.584020000000000
C     -15.412770000000000     -0.733640000000000      5.650350000000000
C     -13.460780000000000      1.347820000000000      9.485160000000000
H     -13.524860000000000     -1.293150000000000      6.491150000000000
H     -14.988659999999999     -1.751600000000000      7.487980000000000
H     -13.994059999999999     -0.724340000000000      9.382860000000001
H     -12.540839999999999     -0.241170000000000      8.379110000000001
H     -14.465680000000001      1.666610000000000      9.835270000000000
H     -12.803280000000001      1.201460000000000     10.368250000000000
H     -13.029090000000000      2.145770000000000      8.844320000000000
H     -14.974360000000001      0.045980000000000      4.991740000000000
H     -15.508319999999999     -1.678170000000000      5.073810000000000
H     -16.423570000000002     -0.408150000000000      5.976110000000000
Na    -12.962809999999999      1.793130000000000      6.008660000000000
Mg     -6.886710000000000     -0.914880000000000      6.368460000000000
H      -3.838230000000000     -1.288740000000000      6.028480000000000
C      -4.576620000000000     -3.197090000000000      5.257940000000000
C      -4.614850000000000     -2.049560000000000      6.250120000000000
C      -3.233520000000000     -3.914500000000000      5.355410000000000
H      -5.404970000000000     -3.902780000000000      5.486400000000000
H      -4.726910000000000     -2.792730000000000      4.232940000000000
H      -2.416400000000000     -3.194130000000000      5.137320000000000
H      -3.100400000000000     -4.307080000000000      6.387260000000000
C      -3.151990000000000     -5.070460000000000      4.369560000000000
H      -4.532400000000000     -2.413280000000000      7.295850000000000
H      -3.949310000000000     -5.813910000000000      4.582730000000000
H      -3.264170000000000     -4.696560000000000      3.329660000000000
H      -2.163160000000000     -5.564080000000000      4.470020000000000
C      -6.776680000000000      2.072500000000000      7.424710000000000
C      -7.726270000000000      3.080800000000000      7.438450000000000
C      -8.871190000000000      2.565970000000000      6.848610000000000
C      -8.567060000000000      1.272170000000000      6.486920000000000
N      -7.309070000000000      0.983610000000000      6.847550000000000
C      -9.468439999999999      0.264440000000000      5.795590000000000
N      -8.691979999999999     -0.941720000000000      5.436820000000000
C      -9.317990000000000     -2.074610000000000      4.732780000000000
H      -7.601260000000000      4.078550000000000      7.836550000000000
H      -5.768430000000000      2.133250000000000      7.814370000000000
H      -9.811059999999999      3.077350000000000      6.693190000000000
H      -9.871130000000001      0.730550000000000      4.876450000000000
H     -10.293540000000000      0.012010000000000      6.492690000000000
C      -9.767370000000000     -1.629830000000000      3.328160000000000
C      -8.276080000000000     -3.197430000000000      4.578510000000000
C     -10.516529999999999     -2.616140000000000      5.530660000000000
H      -8.897080000000001     -1.247390000000000      2.750680000000000
H     -10.213440000000000     -2.480150000000000      2.769650000000000
H     -10.529980000000000     -0.827020000000000      3.384340000000000
H      -7.930710000000000     -3.553320000000000      5.572560000000000
H      -8.711740000000001     -4.064020000000000      4.032650000000000
H      -7.392870000000000     -2.839640000000000      4.007040000000000
H     -10.193000000000000     -2.933120000000000      6.545440000000000
H     -11.304930000000001     -1.844070000000000      5.632600000000000
H     -10.966820000000000     -3.490040000000000      5.012590000000000
