170

Mg     -0.663040000000000     -0.518400000000000     -0.533080000000000
C       2.047080000000000     -0.793300000000000      1.314410000000000
C       2.608120000000000      0.067270000000000     -0.847560000000000
O       1.657560000000000     -0.581810000000000     -0.031300000000000
C       2.620050000000000      0.430290000000000      2.033190000000000
C       3.834440000000000     -0.793880000000000     -1.106150000000000
H       1.120890000000000     -1.063690000000000      1.858320000000000
H       2.724120000000000     -1.667350000000000      1.396520000000000
H       2.118370000000000      0.248090000000000     -1.823460000000000
H       2.866030000000000      1.077460000000000     -0.473190000000000
H       4.482870000000000     -0.286340000000000     -1.849890000000000
H       3.527900000000000     -1.782810000000000     -1.505480000000000
H       4.405230000000000     -0.936830000000000     -0.168020000000000
H       1.944410000000000      1.295260000000000      1.930760000000000
H       3.621060000000000      0.689200000000000      1.633570000000000
H       2.721740000000000      0.208260000000000      3.114240000000000
H      -0.401310000000000     -2.792920000000000     -1.898350000000000
C      -1.172770000000000     -1.402190000000000     -3.409230000000000
C      -1.155840000000000     -1.985570000000000     -1.985890000000000
C       0.132080000000000     -0.713750000000000     -3.856740000000000
H      -1.411840000000000     -2.221380000000000     -4.118670000000000
H      -1.980280000000000     -0.641060000000000     -3.465030000000000
H      -0.008540000000000     -0.341490000000000     -4.896750000000000
H       0.330000000000000      0.168220000000000     -3.215000000000000
C       1.349210000000000     -1.638510000000000     -3.852340000000000
H      -2.154350000000000     -2.385560000000000     -1.725420000000000
H       1.559740000000000     -1.998520000000000     -2.827090000000000
H       1.181010000000000     -2.509130000000000     -4.519330000000000
H       2.242900000000000     -1.082690000000000     -4.212260000000000
C       0.860600000000000      3.093270000000000     -0.888810000000000
C      -0.197010000000000      2.651130000000000     -1.650050000000000
C      -1.084550000000000      2.019020000000000     -0.797000000000000
C      -0.571560000000000      2.051000000000000      0.437810000000000
N       0.652700000000000      2.748550000000000      0.453680000000000
C      -1.169280000000000      1.400480000000000      1.657020000000000
N      -1.277070000000000     -0.044500000000000      1.421300000000000
C      -1.980360000000000     -0.884620000000000      2.420540000000000
H      -0.291110000000000      2.762920000000000     -2.721850000000000
H       1.733450000000000      3.613120000000000     -1.257400000000000
H      -2.007160000000000      1.531890000000000     -1.089600000000000
H      -2.158710000000000      1.851930000000000      1.852980000000000
H      -0.493580000000000      1.585830000000000      2.518520000000000
C      -3.482130000000000     -0.540020000000000      2.462850000000000
C      -1.823700000000000     -2.361020000000000      2.020550000000000
C      -1.370800000000000     -0.691890000000000      3.830490000000000
H      -3.945700000000000     -0.700850000000000      1.467280000000000
H      -4.007550000000000     -1.178000000000000      3.207150000000000
H      -3.649830000000000      0.512590000000000      2.767800000000000
H      -0.753830000000000     -2.658130000000000      2.015480000000000
H      -2.361970000000000     -3.021700000000000      2.737120000000000
H      -2.241470000000000     -2.534150000000000      1.006640000000000
H      -0.287200000000000     -0.936360000000000      3.828450000000000
H      -1.493870000000000      0.351690000000000      4.188360000000000
H      -1.870350000000000     -1.354450000000000      4.571130000000000
Na      2.431690000000000     11.867430000000001      9.356859999999999
C       4.151250000000000     14.547710000000000      9.592050000000000
C       3.846850000000000     13.794900000000000     11.792600000000000
O       3.284150000000000     13.893890000000001     10.498250000000001
C       5.077400000000000     13.546659999999999      8.908770000000001
C       3.484580000000000     15.007910000000001     12.645759999999999
H       3.525860000000000     15.032060000000000      8.812490000000000
H       4.735810000000000     15.365530000000000     10.070349999999999
H       3.425650000000000     12.887390000000000     12.275480000000000
H       4.949830000000000     13.650340000000000     11.770920000000000
H       2.382870000000000     15.101360000000000     12.741120000000000
H       3.917210000000000     14.886089999999999     13.660729999999999
H       3.889400000000000     15.938190000000001     12.196830000000000
H       4.482400000000000     12.778370000000001      8.372080000000000
H       5.720580000000000     14.077430000000000      8.176570000000000
H       5.728280000000000     13.044750000000001      9.653269999999999
C       4.827330000000000      9.963910000000000     10.744400000000001
C       3.205660000000000      8.632080000000000      9.611179999999999
O       3.565770000000000      9.911680000000000     10.102000000000000
C       6.003160000000000      9.636310000000000      9.823430000000000
C       3.044580000000000      7.579690000000000     10.707920000000000
H       4.966070000000000     11.013890000000000     11.077529999999999
H       4.843700000000000      9.354710000000001     11.671150000000001
H       2.210600000000000      8.748609999999999      9.130160000000000
H       3.886170000000000      8.290590000000000      8.804060000000000
H       2.342720000000000      7.946040000000000     11.486370000000001
H       2.637120000000000      6.647340000000000     10.263809999999999
H       4.022090000000000      7.334480000000000     11.170120000000001
H       5.974440000000000     10.283060000000001      8.921379999999999
H       6.953730000000000      9.819330000000001     10.367310000000000
H       5.988620000000000      8.569730000000000      9.521420000000001
Na      1.092090000000000     14.804010000000000     10.791530000000000
C      -0.421410000000000     12.651759999999999      8.761010000000001
C      -0.443750000000000     11.923170000000001     10.983980000000001
O       0.242160000000000     12.679800000000000     10.007190000000000
C       0.149680000000000     13.752500000000000      7.876180000000000
C      -0.185100000000000     10.424700000000000     10.834660000000000
H      -0.237430000000000     11.680830000000000      8.257310000000000
H      -1.514120000000000     12.839960000000000      8.861540000000000
H      -0.051020000000000     12.236770000000000     11.974919999999999
H      -1.533200000000000     12.147180000000001     11.001379999999999
H       0.904120000000000     10.219120000000000     10.880540000000000
H      -0.684910000000000      9.881030000000001     11.663570000000000
H      -0.591090000000000     10.045220000000000      9.874760000000000
H       1.243640000000000     13.610440000000001      7.743730000000000
H      -0.338470000000000     13.727169999999999      6.879160000000000
H      -0.030640000000000     14.746240000000000      8.336520000000000
C      -1.512150000000000     16.846660000000000     10.629610000000000
C       0.344600000000000     17.892640000000000      9.723540000000000
O      -0.169680000000000     16.689080000000001     10.239250000000000
C      -1.997410000000000     15.521850000000001     11.202990000000000
C       1.784620000000000     17.645759999999999      9.293870000000000
H      -1.608150000000000     17.621580000000002     11.423330000000000
H      -2.149780000000000     17.097470000000001      9.752440000000000
H      -0.230980000000000     18.218520000000002      8.828049999999999
H       0.347040000000000     18.687629999999999     10.502929999999999
H       1.815310000000000     16.854759999999999      8.514220000000000
H       2.226150000000000     18.576139999999999      8.880420000000001
H       2.390780000000000     17.314060000000001     10.164709999999999
H      -1.381020000000000     15.237880000000001     12.083250000000000
H      -3.058690000000000     15.604430000000001     11.516100000000000
H      -1.911190000000000     14.724940000000000     10.435560000000001
Mg     -3.018910000000000      5.447540000000000      7.634300000000000
C      -2.116850000000000      5.962250000000000      3.906060000000000
C      -4.028520000000000      7.177780000000000      4.339430000000000
O      -3.360880000000000      5.955780000000000      4.578100000000000
C      -1.598270000000000      4.537420000000000      3.788260000000000
C      -5.314120000000000      7.221830000000000      5.153340000000000
H      -2.205060000000000      6.356520000000000      2.868330000000000
H      -1.378410000000000      6.567270000000000      4.473760000000000
H      -3.399180000000000      8.044800000000000      4.637580000000000
H      -4.303780000000000      7.266890000000000      3.265980000000000
H      -5.089370000000000      7.147100000000000      6.236520000000000
H      -5.844690000000000      8.179259999999999      4.965270000000000
H      -5.976840000000000      6.380250000000000      4.862100000000000
H      -2.320300000000000      3.916560000000000      3.220620000000000
H      -0.617160000000000      4.532450000000000      3.269250000000000
H      -1.463820000000000      4.089850000000000      4.785470000000000
H      -6.177930000000000      4.786060000000000      6.902610000000000
C      -5.646140000000000      4.945950000000000      9.021789999999999
C      -5.381660000000000      4.460640000000000      7.601820000000000
C      -5.716490000000000      6.476810000000000      9.086050000000000
H      -6.607030000000000      4.507300000000000      9.361920000000000
H      -4.828860000000000      4.589000000000000      9.687070000000000
H      -4.736560000000000      6.917320000000000      8.799230000000000
H      -6.492140000000000      6.847230000000000      8.382090000000000
C      -6.078410000000000      6.946030000000000     10.492410000000000
H      -5.274930000000000      3.356740000000000      7.576860000000000
H      -7.067780000000000      6.534100000000000     10.785780000000001
H      -5.312790000000000      6.613060000000000     11.224959999999999
H      -6.137250000000000      8.054740000000001     10.514900000000001
C      -2.579200000000000      8.538119999999999      7.103650000000000
C      -1.432960000000000      9.268640000000000      6.843530000000000
C      -0.375090000000000      8.371370000000001      6.857820000000000
C      -0.922130000000000      7.130600000000000      7.099940000000000
N      -2.250670000000000      7.249640000000000      7.251060000000000
C      -0.214070000000000      5.792460000000000      7.213680000000000
N      -1.191720000000000      4.677630000000000      7.169540000000000
C      -0.797410000000000      3.347260000000000      7.670920000000000
H      -1.378320000000000     10.332030000000000      6.665360000000000
H      -3.588000000000000      8.930300000000001      7.168400000000000
H       0.670620000000000      8.597750000000000      6.694140000000000
H       0.476730000000000      5.675510000000000      6.353190000000000
H       0.366500000000000      5.801950000000000      8.157959999999999
C      -0.707750000000000      3.349660000000000      9.206360000000000
C      -1.875240000000000      2.328110000000000      7.247380000000000
C       0.547600000000000      2.916420000000000      7.050860000000000
H      -1.689250000000000      3.625260000000000      9.649310000000000
H      -0.428480000000000      2.338860000000000      9.576309999999999
H       0.056450000000000      4.065440000000000      9.567819999999999
H      -1.976310000000000      2.282760000000000      6.142650000000000
H      -1.614840000000000      1.307040000000000      7.603830000000000
H      -2.863980000000000      2.600630000000000      7.672820000000000
H       0.478160000000000      2.921310000000000      5.940950000000000
H       1.365040000000000      3.602910000000000      7.353950000000000
H       0.823460000000000      1.891870000000000      7.379420000000000
