170

Mg     -0.661860000000000     -0.518470000000000     -0.533300000000000
C       2.047080000000000     -0.792760000000000      1.314540000000000
C       2.608240000000000      0.067460000000000     -0.847530000000000
O       1.657740000000000     -0.581560000000000     -0.031230000000000
C       2.620080000000000      0.430950000000000      2.033250000000000
C       3.834480000000000     -0.793790000000000     -1.106120000000000
H       1.120770000000000     -1.063130000000000      1.858280000000000
H       2.724090000000000     -1.666870000000000      1.396760000000000
H       2.118430000000000      0.248210000000000     -1.823420000000000
H       2.866140000000000      1.077660000000000     -0.473200000000000
H       4.482920000000000     -0.286310000000000     -1.849890000000000
H       3.527870000000000     -1.782710000000000     -1.505430000000000
H       4.405250000000000     -0.936770000000000     -0.167990000000000
H       1.944620000000000      1.296110000000000      1.931070000000000
H       3.621080000000000      0.689760000000000      1.633600000000000
H       2.721850000000000      0.208850000000000      3.114250000000000
H      -0.401390000000000     -2.792900000000000     -1.898450000000000
C      -1.172780000000000     -1.402140000000000     -3.409280000000000
C      -1.155820000000000     -1.985440000000000     -1.985950000000000
C       0.132090000000000     -0.713730000000000     -3.856760000000000
H      -1.411880000000000     -2.221350000000000     -4.118680000000000
H      -1.980260000000000     -0.641000000000000     -3.465070000000000
H      -0.008520000000000     -0.341470000000000     -4.896780000000000
H       0.330010000000000      0.168240000000000     -3.215010000000000
C       1.349210000000000     -1.638510000000000     -3.852340000000000
H      -2.154340000000000     -2.385370000000000     -1.725370000000000
H       1.559740000000000     -1.998510000000000     -2.827090000000000
H       1.181020000000000     -2.509130000000000     -4.519330000000000
H       2.242910000000000     -1.082690000000000     -4.212260000000000
C       0.860960000000000      3.093750000000000     -0.888210000000000
C      -0.196800000000000      2.651880000000000     -1.649480000000000
C      -1.084520000000000      2.020000000000000     -0.796470000000000
C      -0.571300000000000      2.051570000000000      0.438260000000000
N       0.653230000000000      2.748710000000000      0.454200000000000
C      -1.168670000000000      1.400520000000000      1.657350000000000
N      -1.280690000000000     -0.043830000000000      1.419160000000000
C      -1.981430000000000     -0.885010000000000      2.419270000000000
H      -0.290870000000000      2.763580000000000     -2.721320000000000
H       1.733900000000000      3.613400000000000     -1.256820000000000
H      -2.007090000000000      1.532800000000000     -1.089200000000000
H      -2.155840000000000      1.856240000000000      1.858800000000000
H      -0.489410000000000      1.580140000000000      2.516330000000000
C      -3.483030000000000     -0.540850000000000      2.462560000000000
C      -1.824080000000000     -2.361290000000000      2.019370000000000
C      -1.370850000000000     -0.692790000000000      3.828770000000000
H      -3.946770000000000     -0.701630000000000      1.467100000000000
H      -4.008010000000000     -1.178710000000000      3.207200000000000
H      -3.650250000000000      0.511980000000000      2.767010000000000
H      -0.754040000000000     -2.657940000000000      2.014400000000000
H      -2.361820000000000     -3.022020000000000      2.736360000000000
H      -2.241960000000000     -2.534770000000000      1.005680000000000
H      -0.287200000000000     -0.937110000000000      3.826420000000000
H      -1.494080000000000      0.350590000000000      4.186940000000000
H      -1.869970000000000     -1.355670000000000      4.569530000000000
Na     -0.786340000000000      7.125120000000000      9.714460000000001
C       1.927470000000000      8.083340000000000      8.331270000000000
C       0.295400000000000      9.630129999999999      7.663800000000000
O       0.568470000000000      8.281499999999999      7.993020000000000
C       2.151980000000000      8.297599999999999      9.824740000000000
C       0.487420000000000      9.883100000000001      6.170600000000000
H       2.188780000000000      7.031930000000000      8.086980000000001
H       2.616900000000000      8.719540000000000      7.731900000000000
H      -0.766380000000000      9.832170000000000      7.920630000000000
H       0.900250000000000     10.348350000000000      8.260680000000001
H      -0.181740000000000      9.227349999999999      5.575790000000000
H       0.239200000000000     10.940560000000000      5.941840000000000
H       1.539060000000000      9.693059999999999      5.872660000000000
H       1.513490000000000      7.604660000000000     10.411680000000000
H       3.215760000000000      8.099880000000001     10.071280000000000
H       1.910400000000000      9.341469999999999     10.110760000000001
C      -1.126200000000000      9.959770000000001     11.485740000000000
C      -2.514100000000000      8.223030000000000     12.349010000000000
O      -1.670430000000000      8.665100000000001     11.299830000000000
C      -0.205300000000000     10.073729999999999     12.701079999999999
C      -3.773220000000000      9.072520000000001     12.520189999999999
H      -0.501760000000000     10.168500000000000     10.591770000000000
H      -1.912960000000000     10.741619999999999     11.486359999999999
H      -2.852040000000000      7.201400000000000     12.071240000000000
H      -1.961090000000000      8.102390000000000     13.303369999999999
H      -4.311010000000000      9.154700000000000     11.552289999999999
H      -4.441160000000000      8.591329999999999     13.265070000000000
H      -3.521690000000000     10.084730000000000     12.896269999999999
H       0.587420000000000      9.297689999999999     12.654610000000000
H       0.272170000000000     11.076160000000000     12.703490000000000
H      -0.776380000000000      9.971090000000000     13.645730000000000
Na     -0.336990000000000      6.963280000000000      6.214030000000000
C      -1.802020000000000      4.726850000000000      8.188409999999999
C      -3.251750000000000      6.470740000000000      7.613910000000000
O      -1.908640000000000      6.089020000000000      7.831740000000000
C      -0.347020000000000      4.296520000000000      8.052479999999999
C      -3.998670000000000      6.714100000000000      8.924469999999999
H      -2.099520000000000      4.589940000000000      9.248150000000001
H      -2.406290000000000      4.069030000000000      7.523810000000000
H      -3.231700000000000      7.429850000000000      7.053340000000000
H      -3.794740000000000      5.748200000000000      6.965470000000000
H      -3.471310000000000      7.481690000000000      9.527369999999999
H      -5.023120000000000      7.079130000000000      8.701390000000000
H      -4.083280000000000      5.777930000000000      9.513270000000000
H       0.301790000000000      4.925490000000000      8.698980000000001
H      -0.236860000000000      3.234860000000000      8.358639999999999
H      -0.013630000000000      4.400420000000000      6.998900000000000
C      -0.567930000000000      4.893550000000000      3.634110000000000
C       1.663870000000000      5.289700000000000      4.106860000000000
O       0.337320000000000      5.493820000000000      4.528200000000000
C      -1.980000000000000      5.173500000000000      4.130610000000000
C       2.589220000000000      5.933970000000000      5.130830000000000
H      -0.468170000000000      5.327630000000000      2.613650000000000
H      -0.423210000000000      3.791190000000000      3.611250000000000
H       1.903140000000000      4.203280000000000      4.060940000000000
H       1.844680000000000      5.776220000000000      3.121990000000000
H       2.432060000000000      5.468430000000000      6.127380000000000
H       3.648690000000000      5.794690000000000      4.831530000000000
H       2.375500000000000      7.022330000000000      5.206690000000000
H      -2.160780000000000      6.269590000000000      4.170080000000000
H      -2.724830000000000      4.707670000000000      3.452840000000000
H      -2.111150000000000      4.754350000000000      5.149770000000000
Mg     -7.616820000000000      3.095670000000000     13.029830000000000
C      -5.104530000000000      0.820460000000000     14.897700000000000
C      -5.697420000000000     -0.248160000000000     12.942130000000001
O      -6.177350000000000      0.517000000000000     14.028340000000000
C      -5.654450000000000      1.248060000000000     16.249540000000000
C      -6.824790000000000     -0.478100000000000     11.945690000000001
H      -4.453950000000000     -0.064180000000000     15.082929999999999
H      -4.496080000000000      1.650270000000000     14.479500000000000
H      -4.870030000000000      0.275960000000000     12.415390000000000
H      -5.346710000000000     -1.243120000000000     13.292899999999999
H      -7.201820000000000      0.489720000000000     11.557710000000000
H      -6.453150000000000     -1.083440000000000     11.091920000000000
H      -7.659430000000000     -1.021680000000000     12.435779999999999
H      -6.262170000000000      0.431590000000000     16.690930000000002
H      -4.818530000000000      1.498880000000000     16.935130000000001
H      -6.293170000000000      2.138970000000000     16.143519999999999
H      -9.704090000000001      0.577550000000000     12.524430000000001
C     -10.185499999999999      2.492370000000000     11.575240000000001
C      -9.720549999999999      1.659830000000000     12.763690000000000
C      -9.262950000000000      2.303500000000000     10.364530000000000
H     -11.218249999999999      2.178180000000000     11.318090000000000
H     -10.194610000000001      3.566780000000000     11.864229999999999
H      -8.240180000000001      2.669800000000000     10.601889999999999
H      -9.202320000000000      1.225430000000000     10.102840000000000
C      -9.793340000000001      3.064540000000000      9.152730000000000
H     -10.360090000000000      1.848410000000000     13.650280000000000
H     -10.806290000000001      2.693450000000000      8.886600000000000
H      -9.848300000000000      4.152870000000000      9.367740000000000
H      -9.119719999999999      2.904610000000000      8.284490000000000
C      -5.104730000000000      2.596740000000000     11.168030000000000
C      -3.801190000000000      3.054790000000000     11.246560000000001
C      -3.729020000000000      3.864910000000000     12.370340000000001
C      -4.981690000000000      3.846460000000000     12.942840000000000
N      -5.800140000000000      3.081920000000000     12.202819999999999
C      -5.457520000000000      4.559170000000000     14.195959999999999
N      -6.773830000000000      4.030980000000000     14.630330000000001
C      -7.608510000000000      4.829610000000000     15.547929999999999
H      -2.999180000000000      2.823620000000000     10.561859999999999
H      -5.508560000000000      1.940960000000000     10.404790000000000
H      -2.857570000000000      4.393060000000000     12.735260000000000
H      -4.729410000000000      4.376790000000000     15.013270000000000
H      -5.497030000000000      5.643290000000000     13.968209999999999
C      -8.215760000000000      6.038960000000000     14.817449999999999
C      -8.760910000000001      3.939490000000000     16.056860000000000
C      -6.779160000000000      5.292240000000000     16.763390000000001
H      -8.842090000000001      5.699030000000000     13.964460000000001
H      -8.857910000000000      6.623890000000000     15.511810000000001
H      -7.429640000000000      6.716850000000000     14.430999999999999
H      -8.375180000000000      3.050970000000000     16.599390000000000
H      -9.415860000000000      4.503660000000000     16.757010000000001
H      -9.385960000000001      3.582060000000000     15.211639999999999
H      -6.338450000000000      4.414170000000000     17.284320000000001
H      -5.953570000000000      5.964630000000000     16.451090000000001
H      -7.414400000000000      5.845730000000000     17.487179999999999
