125

Mg      0.450810000000000      0.142470000000000     -0.896110000000000
C      -2.244360000000000     -1.130050000000000      0.501270000000000
C      -0.348970000000000     -2.521560000000000      0.948980000000000
O      -0.909790000000000     -1.480260000000000      0.179360000000000
C      -2.524320000000000     -0.903780000000000      1.988740000000000
C      -1.002880000000000     -3.865670000000000      0.669520000000000
H      -2.430930000000000     -0.159110000000000      0.002020000000000
H      -2.959610000000000     -1.851840000000000      0.057950000000000
H       0.713530000000000     -2.601270000000000      0.649540000000000
H      -0.317100000000000     -2.277710000000000      2.029110000000000
H      -0.441250000000000     -4.659530000000000      1.203910000000000
H      -0.985940000000000     -4.078240000000000     -0.419490000000000
H      -2.050850000000000     -3.862140000000000      1.027370000000000
H      -1.797340000000000     -0.196080000000000      2.419750000000000
H      -2.489060000000000     -1.861030000000000      2.546540000000000
H      -3.534670000000000     -0.464940000000000      2.110710000000000
H       0.463920000000000     -1.365500000000000     -3.094060000000000
C       2.595160000000000     -1.200510000000000     -2.601410000000000
C       1.185740000000000     -0.600730000000000     -2.743510000000000
C       2.733480000000000     -2.321420000000000     -1.552000000000000
H       2.909220000000000     -1.590630000000000     -3.591710000000000
H       3.292400000000000     -0.387490000000000     -2.305840000000000
H       3.791190000000000     -2.669560000000000     -1.550440000000000
H       2.517720000000000     -1.918440000000000     -0.542070000000000
C       1.843230000000000     -3.533730000000000     -1.824730000000000
H       1.200960000000000      0.245080000000000     -3.457130000000000
H       0.774820000000000     -3.246910000000000     -1.789040000000000
H       2.072400000000000     -3.971330000000000     -2.818280000000000
H       2.017700000000000     -4.308890000000000     -1.046360000000000
C       1.692800000000000     -0.375520000000000      2.802930000000000
C       2.539430000000000     -0.036850000000000      1.772400000000000
C       1.930910000000000      0.976980000000000      1.053570000000000
C       0.741590000000000      1.228200000000000      1.611150000000000
N       0.540880000000000      0.420650000000000      2.748350000000000
C      -0.285950000000000      2.199290000000000      1.093820000000000
N      -0.677480000000000      1.799960000000000     -0.263590000000000
C      -1.567830000000000      2.690970000000000     -1.046130000000000
H       3.492030000000000     -0.503710000000000      1.561190000000000
H       1.867050000000000     -1.147070000000000      3.539260000000000
H       2.325410000000000      1.445450000000000      0.159680000000000
H       0.146430000000000      3.216340000000000      1.106450000000000
H      -1.171820000000000      2.158700000000000      1.761940000000000
C      -0.853060000000000      4.013300000000000     -1.387230000000000
C      -1.946650000000000      1.981930000000000     -2.356760000000000
C      -2.867300000000000      2.998350000000000     -0.263320000000000
H       0.066950000000000      3.816770000000000     -1.976100000000000
H      -1.520930000000000      4.675460000000000     -1.981060000000000
H      -0.576680000000000      4.574470000000000     -0.471910000000000
H      -2.498770000000000      1.040570000000000     -2.151890000000000
H      -2.596880000000000      2.634060000000000     -2.982620000000000
H      -1.035580000000000      1.735380000000000     -2.941160000000000
H      -3.404400000000000      2.060560000000000     -0.006290000000000
H      -2.655310000000000      3.549670000000000      0.676490000000000
H      -3.553100000000000      3.631380000000000     -0.868410000000000
Na     -9.141100000000000      2.005630000000000      8.859950000000000
C      -5.895100000000000      2.102300000000000      9.335559999999999
C      -6.445060000000000      3.082410000000000      7.325050000000000
O      -6.617170000000000      1.938600000000000      8.133530000000000
C      -6.073720000000000      0.859800000000000     10.196429999999999
C      -7.233510000000000      2.907770000000000      6.035290000000000
H      -4.806140000000000      2.221320000000000      9.131880000000001
H      -6.281170000000000      2.973540000000000      9.912179999999999
H      -6.830220000000000      3.992850000000000      7.838750000000000
H      -5.375230000000000      3.209510000000000      7.049370000000000
H      -8.313700000000001      2.781990000000000      6.260930000000000
H      -7.102790000000000      3.803940000000000      5.392090000000000
H      -6.870450000000000      2.014580000000000      5.483790000000000
H      -5.690320000000000     -0.034700000000000      9.661000000000000
H      -5.511770000000000      0.977420000000000     11.147169999999999
H      -7.148910000000000      0.708900000000000     10.431350000000000
Na     -5.274400000000000      0.072050000000000      6.845830000000000
Mg     -0.797630000000000      5.787700000000000      7.711540000000000
C       1.366700000000000      2.664640000000000      6.980060000000000
C       0.764690000000000      3.590330000000000      4.955550000000000
O       0.312870000000000      3.265470000000000      6.253970000000000
C       0.797400000000000      1.934160000000000      8.186400000000001
C      -0.329350000000000      4.341850000000000      4.210920000000000
H       1.911300000000000      1.905400000000000      6.374150000000000
H       2.078580000000000      3.440240000000000      7.334290000000000
H       1.667130000000000      4.238870000000000      4.994050000000000
H       0.993610000000000      2.666980000000000      4.381950000000000
H      -0.584710000000000      5.280310000000000      4.743220000000000
H       0.020620000000000      4.598570000000000      3.189280000000000
H      -1.238660000000000      3.709880000000000      4.132540000000000
H       0.086390000000000      1.148760000000000      7.857360000000000
H       1.619540000000000      1.468520000000000      8.768649999999999
H       0.261160000000000      2.634330000000000      8.846109999999999
H      -3.113740000000000      4.843230000000000      5.543670000000000
C      -3.338450000000000      6.819800000000000      6.462570000000000
C      -3.020470000000000      5.332200000000000      6.534300000000000
C      -2.382030000000000      7.549320000000000      5.511540000000000
H      -4.385110000000000      6.931990000000000      6.111180000000000
H      -3.248280000000000      7.260470000000000      7.480260000000000
H      -1.339720000000000      7.483840000000000      5.893710000000000
H      -2.421560000000000      7.080020000000000      4.505300000000000
C      -2.768050000000000      9.019230000000000      5.374530000000000
H      -3.669420000000000      4.829900000000000      7.278730000000000
H      -3.799600000000000      9.103270000000000      4.970390000000000
H      -2.719380000000000      9.529800000000000      6.359800000000000
H      -2.071830000000000      9.526380000000000      4.673690000000000
C       1.739850000000000      6.670230000000000      6.034460000000000
C       3.078310000000000      6.757940000000000      6.377080000000000
C       3.176710000000000      6.370180000000000      7.705420000000000
C       1.901410000000000      6.042370000000000      8.109780000000001
N       1.046870000000000      6.233610000000000      7.092990000000000
C       1.439610000000000      5.555970000000000      9.472080000000000
N       0.054550000000000      5.030460000000000      9.398540000000001
C      -0.737160000000000      4.897790000000000     10.636520000000001
H       3.887380000000000      7.071290000000000      5.733000000000000
H       1.308690000000000      6.904580000000000      5.067690000000000
H       4.078210000000000      6.321050000000000      8.302090000000000
H       2.102110000000000      4.730300000000000      9.804539999999999
H       1.525320000000000      6.407800000000000     10.176110000000000
C      -1.176480000000000      6.278480000000000     11.152229999999999
C      -2.000890000000000      4.071450000000000     10.319680000000000
C       0.074180000000000      4.151240000000000     11.715339999999999
H      -1.790950000000000      6.798600000000000     10.385910000000001
H      -1.787810000000000      6.167040000000000     12.074470000000000
H      -0.305080000000000      6.916180000000000     11.399089999999999
H      -1.738070000000000      3.059180000000000      9.947120000000000
H      -2.627640000000000      3.943430000000000     11.229730000000000
H      -2.616870000000000      4.574000000000000      9.544610000000000
H       0.394480000000000      3.156480000000000     11.335400000000000
H       0.980110000000000      4.724420000000000     12.002030000000000
H      -0.534930000000000      3.996650000000000     12.631190000000000
