185

Mg      0.186200000000000      0.453780000000000     -0.176670000000000
C       0.214610000000000     -1.883010000000000     -2.776540000000000
C       1.732180000000000     -2.388030000000000     -1.004980000000000
O       0.604570000000000     -1.649630000000000     -1.435930000000000
C      -0.291530000000000     -3.299570000000000     -3.028750000000000
C       3.014610000000000     -2.040830000000000     -1.756480000000000
H      -0.630700000000000     -1.190370000000000     -2.979450000000000
H       1.006780000000000     -1.608190000000000     -3.498630000000000
H       1.905790000000000     -2.105180000000000      0.052250000000000
H       1.533100000000000     -3.478590000000000     -0.984610000000000
H       3.177400000000000     -0.943210000000000     -1.749860000000000
H       3.873780000000000     -2.533080000000000     -1.255030000000000
H       2.970860000000000     -2.407230000000000     -2.800850000000000
H      -1.098020000000000     -3.558860000000000     -2.313800000000000
H      -0.696120000000000     -3.358400000000000     -4.060990000000000
H       0.535580000000000     -4.031010000000000     -2.939800000000000
H      -0.426210000000000      1.658650000000000     -2.813110000000000
C       1.760530000000000      1.560530000000000     -2.987130000000000
C       0.489680000000000      1.819540000000000     -2.207880000000000
C       1.858990000000000      2.551450000000000     -4.133790000000000
H       2.636600000000000      1.668550000000000     -2.314990000000000
H       1.745480000000000      0.524610000000000     -3.377890000000000
H       0.972460000000000      2.433440000000000     -4.794390000000000
H       1.870930000000000      3.583920000000000     -3.721520000000000
C       3.124540000000000      2.316080000000000     -4.942280000000000
H       0.496210000000000      2.813060000000000     -1.713690000000000
H       4.019960000000000      2.440230000000000     -4.296420000000000
H       3.120020000000000      1.290740000000000     -5.370220000000000
H       3.167540000000000      3.054170000000000     -5.768390000000000
C      -3.030190000000000      0.139460000000000      3.455980000000000
C      -2.284120000000000      1.044790000000000      4.178540000000000
C      -0.951850000000000      0.777720000000000      3.903040000000000
C      -0.937850000000000     -0.231010000000000      3.035580000000000
N      -2.259560000000000     -0.628220000000000      2.778850000000000
C       0.252510000000000     -0.950490000000000      2.430990000000000
N       1.089730000000000     -0.173160000000000      1.497990000000000
C       2.118440000000000      0.796500000000000      1.900160000000000
H      -2.674730000000000      1.803700000000000      4.844720000000000
H      -4.107440000000000      0.057190000000000      3.438370000000000
H      -0.110850000000000      1.290560000000000      4.334670000000000
H      -0.166640000000000     -1.784580000000000      1.827540000000000
H       0.864460000000000     -1.421430000000000      3.219930000000000
C       2.728550000000000      0.426220000000000      3.253380000000000
C       3.230930000000000      0.752580000000000      0.833730000000000
C       1.539830000000000      2.226630000000000      1.902110000000000
H       3.134530000000000     -0.607930000000000      3.203310000000000
H       3.548940000000000      1.123510000000000      3.515050000000000
H       1.964360000000000      0.471170000000000      4.049190000000000
H       2.820360000000000      1.000110000000000     -0.165760000000000
H       4.035550000000000      1.484560000000000      1.061980000000000
H       3.681400000000000     -0.260600000000000      0.769480000000000
H       1.195250000000000      2.519170000000000      0.885170000000000
H       0.677680000000000      2.331000000000000      2.575220000000000
H       2.314870000000000      2.956300000000000      2.219900000000000
C      -2.957480000000000      0.744530000000000     -0.103910000000000
C      -2.441660000000000     -1.548730000000000     -0.304790000000000
O      -2.022470000000000     -0.220330000000000     -0.544710000000000
C      -2.223740000000000      1.963570000000000      0.459600000000000
C      -3.478610000000000     -1.985670000000000     -1.319790000000000
H      -3.561140000000000      1.070420000000000     -0.974530000000000
H      -3.639280000000000      0.366940000000000      0.688210000000000
H      -1.555930000000000     -2.208860000000000     -0.391770000000000
H      -2.813380000000000     -1.711930000000000      0.721530000000000
H      -3.076290000000000     -1.859710000000000     -2.345980000000000
H      -3.729450000000000     -3.052420000000000     -1.147020000000000
H      -4.394150000000000     -1.372110000000000     -1.199540000000000
H      -1.610190000000000      1.691740000000000      1.337410000000000
H      -1.550080000000000      2.409960000000000     -0.298910000000000
H      -2.958760000000000      2.731310000000000      0.777280000000000
Na      4.220140000000000      6.606310000000000     15.609990000000000
C       5.468320000000000      7.438020000000000     18.430199999999999
C       6.838120000000000      8.450550000000000     16.817830000000001
O       6.036850000000000      7.329730000000000     17.139600000000002
C       4.119390000000000      8.147560000000000     18.370930000000001
C       8.287220000000000      8.233359999999999     17.246099999999998
H       5.304740000000000      6.409890000000000     18.816929999999999
H       6.146450000000000      7.937020000000000     19.158590000000000
H       6.813110000000000      8.577970000000001     15.714540000000000
H       6.443450000000000      9.397880000000001     17.247789999999998
H       8.709440000000001      7.335810000000000     16.748510000000000
H       8.893470000000001      9.116140000000000     16.954059999999998
H       8.355850000000000      8.103700000000000     18.345800000000001
H       3.427020000000000      7.598980000000000     17.698660000000000
H       3.676000000000000      8.185730000000000     19.387519999999999
H       4.239400000000000      9.184920000000000     17.997640000000001
C       3.587600000000000      9.790880000000000     14.725149999999999
C       2.387150000000000      8.250740000000000     13.356640000000001
O       3.397510000000000      8.443350000000001     14.331390000000001
C       2.368240000000000     10.412710000000001     15.406860000000000
C       2.689470000000000      8.929020000000000     12.020630000000001
H       4.405040000000000      9.785600000000001     15.476410000000000
H       3.959080000000000     10.416639999999999     13.888070000000001
H       2.344950000000000      7.157920000000000     13.159140000000001
H       1.382040000000000      8.520400000000000     13.741590000000000
H       3.691470000000000      8.620150000000001     11.655390000000001
H       1.924220000000000      8.626910000000001     11.275350000000000
H       2.649390000000000     10.032819999999999     12.116759999999999
H       2.040860000000000      9.778810000000000     16.257619999999999
H       2.639170000000000     11.418659999999999     15.790850000000001
H       1.531960000000000     10.540660000000001     14.690400000000000
Na      7.374730000000000      5.400370000000000     16.665379999999999
C       4.974350000000000      3.729520000000000     15.071619999999999
C       6.301250000000000      4.984830000000000     13.608300000000000
O       5.778550000000000      4.880600000000000     14.917009999999999
C       4.755220000000000      3.484610000000000     16.559320000000000
C       5.270980000000000      5.537200000000000     12.625610000000000
H       3.981100000000000      3.890620000000000     14.600300000000001
H       5.459220000000000      2.818630000000000     14.653980000000001
H       7.148070000000000      5.703060000000000     13.649780000000000
H       6.731820000000000      4.024320000000000     13.248310000000000
H       4.900740000000000      6.522960000000000     12.974700000000000
H       5.743020000000000      5.665500000000000     11.629090000000000
H       4.415130000000000      4.841350000000000     12.519500000000001
H       4.274210000000000      4.369720000000000     17.028160000000000
H       4.099440000000000      2.600600000000000     16.704630000000002
H       5.726170000000000      3.295270000000000     17.062950000000001
C       9.102359999999999      2.600270000000000     17.069649999999999
C       8.489490000000000      3.427910000000000     19.143329999999999
O       8.347310000000000      3.572390000000000     17.751190000000001
C       8.929980000000000      2.828810000000000     15.573919999999999
C       7.627940000000000      4.486150000000000     19.819210000000002
H      10.185290000000000      2.695750000000000     17.310230000000001
H       8.732880000000000      1.577580000000000     17.307459999999999
H       8.131570000000000      2.427880000000000     19.476890000000001
H       9.546379999999999      3.592760000000000     19.452040000000000
H       6.564190000000000      4.347740000000000     19.529840000000000
H       7.714720000000000      4.403460000000000     20.922460000000001
H       7.955330000000000      5.501280000000000     19.505990000000001
H       9.288779999999999      3.844170000000000     15.298800000000000
H       9.507000000000000      2.073750000000000     15.001090000000000
H       7.857830000000000      2.743400000000000     15.300770000000000
Mg      0.001230000000000      0.409360000000000     10.792930000000000
C       1.415340000000000      3.102110000000000      9.727670000000000
C       0.195680000000000      3.500010000000000     11.735799999999999
O       0.239490000000000      2.857360000000000     10.477510000000001
C       2.702220000000000      2.638990000000000     10.411640000000000
C      -0.005970000000000      5.003560000000000     11.606719999999999
H       1.318400000000000      2.501100000000000      8.802289999999999
H       1.477430000000000      4.155370000000000      9.388460000000000
H      -0.687750000000000      3.088450000000000     12.270530000000001
H       1.063200000000000      3.248740000000000     12.378959999999999
H      -0.896950000000000      5.207240000000000     10.976039999999999
H      -0.164540000000000      5.440790000000000     12.614220000000000
H       0.888180000000000      5.478860000000000     11.156010000000000
H       2.590860000000000      1.601470000000000     10.782190000000000
H       3.538080000000000      2.674070000000000      9.682180000000001
H       2.961680000000000      3.303890000000000     11.257490000000001
H       1.607760000000000     -0.822680000000000     12.477800000000000
C      -0.279540000000000     -0.564610000000000     13.531310000000000
C       0.841680000000000     -0.040550000000000     12.655799999999999
C      -1.013190000000000     -1.711690000000000     12.828379999999999
H       0.164470000000000     -0.905820000000000     14.488750000000000
H      -1.004330000000000      0.255380000000000     13.732460000000000
H      -1.524080000000000     -1.325000000000000     11.920480000000000
H      -0.292240000000000     -2.497030000000000     12.516310000000001
C      -2.043310000000000     -2.344930000000000     13.754670000000001
H       1.314270000000000      0.856410000000000     13.105409999999999
H      -1.529300000000000     -2.776190000000000     14.640230000000001
H      -2.784870000000000     -1.590190000000000     14.091770000000000
H      -2.574770000000000     -3.160370000000000     13.220710000000000
C      -3.559920000000000     -0.888260000000000      9.967670000000000
C      -3.332530000000000      0.379030000000000     10.470499999999999
C      -2.341750000000000      0.941830000000000      9.689610000000000
C      -2.005040000000000      0.025410000000000      8.788410000000001
N      -2.794780000000000     -1.123150000000000      8.963139999999999
C      -0.948840000000000      0.162980000000000      7.720490000000000
N       0.405360000000000      0.205930000000000      8.301729999999999
C       1.217110000000000     -1.035050000000000      8.232780000000000
H      -3.826100000000000      0.836690000000000     11.319860000000000
H      -4.271220000000000     -1.604140000000000     10.349959999999999
H      -1.923750000000000      1.929160000000000      9.797470000000001
H      -1.131630000000000      1.108440000000000      7.167380000000000
H      -1.061090000000000     -0.662780000000000      6.998270000000000
C       1.539200000000000     -1.396610000000000      6.768250000000000
C       2.553090000000000     -0.768710000000000      8.954490000000000
C       0.521550000000000     -2.215790000000000      8.942640000000001
H       2.024250000000000     -0.534660000000000      6.264390000000000
H       2.232880000000000     -2.263810000000000      6.726560000000000
H       0.637730000000000     -1.681180000000000      6.193010000000000
H       2.382600000000000     -0.544100000000000     10.026800000000000
H       3.219420000000000     -1.658490000000000      8.903320000000001
H       3.086600000000000      0.091050000000000      8.494669999999999
H       0.354220000000000     -1.985340000000000     10.016320000000000
H      -0.454330000000000     -2.452300000000000      8.476250000000000
H       1.152890000000000     -3.129380000000000      8.884290000000000
