155

Mg      0.398320000000000     -0.075390000000000     -0.345000000000000
C       1.162410000000000      2.967590000000000      0.255740000000000
C       3.088320000000000      1.562910000000000      0.325750000000000
O       1.723720000000000      1.729690000000000      0.647570000000000
C       1.221900000000000      3.235090000000000     -1.247800000000000
C       3.984970000000000      2.430400000000000      1.194190000000000
H       0.090620000000000      2.909000000000000      0.519870000000000
H       1.560340000000000      3.811600000000000      0.853320000000000
H       3.333590000000000      0.500560000000000      0.544230000000000
H       3.298460000000000      1.693430000000000     -0.755640000000000
H       3.728110000000000      2.275610000000000      2.263310000000000
H       5.044940000000000      2.147960000000000      1.027520000000000
H       3.855520000000000      3.498650000000000      0.928440000000000
H       0.893330000000000      2.341500000000000     -1.814540000000000
H       0.549160000000000      4.082820000000000     -1.495000000000000
H       2.250340000000000      3.509590000000000     -1.554540000000000
H       0.649620000000000     -0.487160000000000     -2.900600000000000
C       1.855330000000000     -2.018260000000000     -1.923660000000000
C       1.395470000000000     -0.584150000000000     -2.086550000000000
C       0.682010000000000     -2.917830000000000     -1.518730000000000
H       2.288660000000000     -2.342490000000000     -2.890540000000000
H       2.635170000000000     -2.069760000000000     -1.131110000000000
H       0.334510000000000     -2.640650000000000     -0.501380000000000
H      -0.167040000000000     -2.789050000000000     -2.222680000000000
C       1.096240000000000     -4.383690000000000     -1.530120000000000
H       2.251080000000000      0.096670000000000     -2.268010000000000
H       1.394170000000000     -4.673400000000000     -2.560530000000000
H       1.947960000000000     -4.558000000000000     -0.839240000000000
H       0.240720000000000     -5.018300000000000     -1.217220000000000
C      -0.595350000000000     -2.814120000000000      2.110400000000000
C       0.582020000000000     -2.105430000000000      2.244500000000000
C       0.253680000000000     -0.766680000000000      2.154650000000000
C      -1.060150000000000     -0.716390000000000      1.949750000000000
N      -1.590810000000000     -2.013550000000000      1.944730000000000
C      -1.895000000000000      0.524060000000000      1.740000000000000
N      -1.613980000000000      1.150030000000000      0.436160000000000
C      -2.583980000000000      0.929890000000000     -0.665240000000000
H       1.576600000000000     -2.521290000000000      2.365990000000000
H      -0.699860000000000     -3.885950000000000      2.124610000000000
H       0.936410000000000      0.063450000000000      2.220270000000000
H      -1.658290000000000      1.251210000000000      2.545620000000000
H      -2.958690000000000      0.255920000000000      1.842680000000000
C      -3.954640000000000      1.541200000000000     -0.314940000000000
C      -2.046320000000000      1.657140000000000     -1.914400000000000
C      -2.736380000000000     -0.566860000000000     -1.010620000000000
H      -3.832850000000000      2.606510000000000     -0.024700000000000
H      -4.637200000000000      1.488580000000000     -1.190440000000000
H      -4.455580000000000      1.000600000000000      0.510440000000000
H      -1.078630000000000      1.221170000000000     -2.236570000000000
H      -2.752950000000000      1.567600000000000     -2.769090000000000
H      -1.888150000000000      2.736890000000000     -1.704180000000000
H      -1.774380000000000     -0.991150000000000     -1.368470000000000
H      -3.075680000000000     -1.151900000000000     -0.134180000000000
H      -3.489530000000000     -0.703150000000000     -1.817260000000000
Na     -5.864570000000000     -5.351030000000000      0.202550000000000
C      -5.406720000000000     -8.274270000000000     -1.002500000000000
C      -7.720650000000000     -7.909020000000000     -1.124990000000000
O      -6.532210000000000     -7.670030000000000     -0.395110000000000
C      -4.756890000000000     -7.326130000000000     -2.005250000000000
C      -8.412190000000001     -9.184630000000000     -0.650440000000000
H      -4.667700000000000     -8.496710000000000     -0.203810000000000
H      -5.647920000000000     -9.250730000000001     -1.479740000000000
H      -8.404280000000000     -7.051750000000000     -0.946670000000000
H      -7.549730000000000     -7.945320000000000     -2.223860000000000
H      -8.660880000000001     -9.113260000000000      0.428790000000000
H      -9.353800000000000     -9.327240000000000     -1.221000000000000
H      -7.760710000000000    -10.067650000000000     -0.813830000000000
H      -4.453070000000000     -6.384740000000000     -1.501480000000000
H      -3.855560000000000     -7.806700000000000     -2.439060000000000
H      -5.460570000000000     -7.085180000000000     -2.827840000000000
C      -7.167560000000000     -4.159680000000000     -2.666820000000000
C      -6.534500000000000     -2.394630000000000     -1.194460000000000
O      -6.751450000000000     -3.784460000000000     -1.365550000000000
C      -6.135500000000000     -3.860110000000000     -3.754510000000000
C      -7.798450000000000     -1.553680000000000     -1.371000000000000
H      -7.300640000000000     -5.261760000000000     -2.647760000000000
H      -8.165870000000000     -3.745400000000000     -2.916380000000000
H      -6.199380000000000     -2.255150000000000     -0.144170000000000
H      -5.698410000000000     -2.024240000000000     -1.822130000000000
H      -8.606050000000000     -1.938530000000000     -0.713260000000000
H      -7.578970000000000     -0.500770000000000     -1.096170000000000
H      -8.138360000000000     -1.563170000000000     -2.426250000000000
H      -5.157100000000000     -4.312560000000000     -3.488760000000000
H      -6.482230000000000     -4.293920000000000     -4.714760000000000
H      -6.016760000000000     -2.767960000000000     -3.903240000000000
Na     -7.019510000000000     -8.249350000000000      1.878820000000000
C      -5.614880000000000     -5.536260000000000      3.208800000000000
C      -7.903420000000000     -5.246840000000000      2.813080000000000
O      -6.719060000000000     -5.902400000000000      2.407420000000000
C      -4.485580000000000     -6.529690000000000      2.966280000000000
C      -7.966190000000000     -3.811090000000000      2.295940000000000
H      -5.251270000000000     -4.526750000000000      2.920450000000000
H      -5.855390000000000     -5.567060000000000      4.295310000000000
H      -8.755300000000000     -5.804200000000000      2.367750000000000
H      -8.052860000000001     -5.288610000000000      3.914690000000000
H      -7.874210000000000     -3.799690000000000      1.190360000000000
H      -8.940870000000000     -3.360210000000000      2.577210000000000
H      -7.156650000000000     -3.195710000000000      2.738570000000000
H      -4.207330000000000     -6.540730000000000      1.890640000000000
H      -3.595070000000000     -6.243440000000000      3.564410000000000
H      -4.803400000000000     -7.550360000000000      3.265350000000000
C      -6.926430000000000     -9.776710000000000      4.820670000000000
C      -5.583940000000000    -10.921070000000000      3.321230000000000
O      -6.361660000000000     -9.767870000000000      3.532010000000000
C      -7.776530000000000     -8.522640000000001      4.974460000000000
C      -4.980130000000000    -10.836069999999999      1.925840000000000
H      -7.588620000000000    -10.660970000000001      4.959670000000000
H      -6.130830000000000     -9.752010000000000      5.598740000000000
H      -4.748630000000000    -10.975709999999999      4.055200000000000
H      -6.214200000000000    -11.837500000000000      3.370640000000000
H      -4.343690000000000     -9.928960000000000      1.844840000000000
H      -4.357670000000000    -11.732049999999999      1.722630000000000
H      -5.787570000000000    -10.776550000000000      1.164080000000000
H      -8.583780000000001     -8.512309999999999      4.210500000000000
H      -8.234200000000000     -8.490539999999999      5.984770000000000
H      -7.145090000000000     -7.620350000000000      4.838190000000000
Mg    -13.403350000000000     -7.123060000000000     -5.384630000000000
H     -12.758780000000000     -4.542200000000000     -6.961010000000000
C     -10.747240000000000     -5.319220000000000     -6.601330000000000
C     -12.171020000000000     -5.035300000000000     -6.159480000000000
C     -10.033790000000000     -4.006040000000000     -6.910300000000000
H     -10.216010000000001     -5.861360000000000     -5.788820000000000
H     -10.772510000000000     -5.968460000000000     -7.503900000000000
H     -10.582670000000000     -3.469610000000000     -7.714870000000000
H     -10.021490000000000     -3.371260000000000     -5.997250000000000
C      -8.602539999999999     -4.250280000000000     -7.364710000000000
H     -12.194990000000001     -4.440130000000000     -5.222730000000000
H      -8.032120000000001     -4.773650000000000     -6.569310000000000
H      -8.592969999999999     -4.866090000000000     -8.288970000000001
H      -8.116640000000000     -3.275150000000000     -7.576050000000000
C     -16.559880000000000     -6.897600000000000     -5.581460000000000
C     -17.560939999999999     -7.847940000000000     -5.467370000000000
C     -16.937960000000000     -9.066350000000000     -5.241260000000000
C     -15.584260000000000     -8.810260000000000     -5.241960000000000
N     -15.369740000000000     -7.502140000000000     -5.436840000000000
C     -14.450559999999999     -9.801990000000000     -5.046130000000000
N     -13.152630000000000     -9.137320000000001     -5.291140000000000
C     -11.881489999999999     -9.875800000000000     -5.189890000000000
H     -18.626120000000000     -7.673740000000000     -5.537160000000000
H     -16.696020000000001     -5.837690000000000     -5.754220000000000
H     -17.415299999999998    -10.026410000000000     -5.102210000000000
H     -14.583399999999999    -10.629690000000000     -5.768370000000000
H     -14.509069999999999    -10.184670000000001     -4.006850000000000
C     -11.825450000000000    -10.966310000000000     -6.276540000000000
C     -10.719930000000000     -8.893079999999999     -5.424780000000000
C     -11.724780000000001    -10.503220000000001     -3.793560000000000
H     -11.930220000000000    -10.508450000000000     -7.284810000000000
H     -10.858840000000001    -11.512280000000001     -6.237430000000000
H     -12.637460000000001    -11.709560000000000     -6.144170000000000
H     -10.720079999999999     -8.092240000000000     -4.654820000000000
H      -9.742190000000001     -9.422290000000000     -5.373570000000000
H     -10.802410000000000     -8.418170000000000     -6.425960000000000
H     -11.767680000000000     -9.715990000000000     -3.010330000000000
H     -12.525610000000000    -11.245310000000000     -3.597890000000000
H     -10.750280000000000    -11.031100000000000     -3.711440000000000
