170

Mg     -0.144720000000000      0.457480000000000     -0.009500000000000
C      -2.417250000000000     -1.884080000000000      1.265600000000000
C      -1.642370000000000     -2.389110000000000     -0.934120000000000
O      -1.451410000000000     -1.649790000000000      0.257390000000000
C      -2.381860000000000     -3.300820000000000      1.830140000000000
C      -2.934030000000000     -2.041130000000000     -1.669400000000000
H      -2.171100000000000     -1.191400000000000      2.099260000000000
H      -3.438900000000000     -1.609940000000000      0.940560000000000
H      -0.813080000000000     -2.108120000000000     -1.613260000000000
H      -1.526730000000000     -3.479710000000000     -0.770930000000000
H      -3.008090000000000     -0.943540000000000     -1.814800000000000
H      -2.930190000000000     -2.534600000000000     -2.663580000000000
H      -3.817230000000000     -2.405670000000000     -1.109050000000000
H      -1.359610000000000     -3.559450000000000      2.171990000000000
H      -3.074090000000000     -3.360230000000000      2.696120000000000
H      -2.717350000000000     -4.033000000000000      1.069590000000000
H      -2.129980000000000      1.662500000000000      1.839810000000000
C      -3.372180000000000      1.562610000000000      0.033000000000000
C      -2.061910000000000      1.822690000000000      0.743970000000000
C      -4.415370000000000      2.552530000000000      0.521050000000000
H      -3.227920000000000      1.671380000000000     -1.061700000000000
H      -3.702510000000000      0.526410000000000      0.241230000000000
H      -4.545380000000000      2.434600000000000      1.618910000000000
H      -4.063430000000000      3.583810000000000      0.305730000000000
C      -5.747680000000000      2.318190000000000     -0.172210000000000
H      -1.640500000000000      2.818160000000000      0.492800000000000
H      -5.635100000000000      2.442830000000000     -1.270450000000000
H      -6.116320000000000      1.292800000000000      0.045180000000000
H      -6.484850000000000      3.056310000000000      0.203190000000000
C       4.650390000000000      0.167660000000000      0.980980000000000
C       4.866300000000000      1.054640000000000     -0.044320000000000
C       3.948530000000000      0.766870000000000     -1.046980000000000
C       3.182390000000000     -0.251990000000000     -0.639390000000000
N       3.598840000000000     -0.685210000000000      0.634440000000000
C       2.068250000000000     -0.955530000000000     -1.385560000000000
N       0.845580000000000     -0.169460000000000     -1.636330000000000
C       0.681140000000000      0.800830000000000     -2.727210000000000
H       5.623950000000000      1.826050000000000     -0.049200000000000
H       5.195580000000000      0.118530000000000      1.914710000000000
H       3.894980000000000      1.282970000000000     -1.990570000000000
H       1.747300000000000     -1.797120000000000     -0.734150000000000
H       2.447310000000000     -1.417570000000000     -2.313730000000000
C       1.548220000000000      0.431680000000000     -3.933600000000000
C      -0.798740000000000      0.756610000000000     -3.156330000000000
C       0.972570000000000      2.230250000000000     -2.224570000000000
H       1.299800000000000     -0.601580000000000     -4.261770000000000
H       1.364450000000000      1.130040000000000     -4.773930000000000
H       2.621640000000000      0.473400000000000     -3.672590000000000
H      -1.457910000000000      1.003120000000000     -2.299740000000000
H      -1.004590000000000      1.488190000000000     -3.967140000000000
H      -1.078950000000000     -0.257280000000000     -3.513300000000000
H       0.265420000000000      2.520130000000000     -1.415660000000000
H       1.987170000000000      2.333280000000000     -1.815260000000000
H       0.858830000000000      2.962500000000000     -3.052190000000000
C       1.486190000000000      0.742550000000000      2.679430000000000
C       1.047250000000000     -1.551580000000000      2.339740000000000
O       0.634890000000000     -0.221980000000000      2.092040000000000
C       1.605960000000000      1.961630000000000      1.761730000000000
C       0.683860000000000     -1.986280000000000      3.744100000000000
H       1.036170000000000      1.069380000000000      3.638290000000000
H       2.513580000000000      0.364520000000000      2.870750000000000
H       0.532180000000000     -2.211230000000000      1.613390000000000
H       2.121620000000000     -1.720080000000000      2.160150000000000
H      -0.405820000000000     -1.859810000000000      3.907070000000000
H       0.959590000000000     -3.053060000000000      3.874690000000000
H       1.247010000000000     -1.372880000000000      4.476110000000000
H       2.058520000000000      1.688960000000000      0.791050000000000
H       0.611780000000000      2.408060000000000      1.559170000000000
H       2.248840000000000      2.730110000000000      2.238090000000000
Na     -2.506830000000000      8.729240000000001     -3.185770000000000
C       0.402270000000000      9.312960000000000     -4.364260000000000
C       0.299720000000000      6.987760000000000     -4.066560000000000
O      -0.105060000000000      8.252409999999999     -3.577450000000000
C      -0.558510000000000      9.656150000000000     -5.498480000000000
C       1.617380000000000      6.546860000000000     -3.433830000000000
H       0.500760000000000     10.204900000000000     -3.709860000000000
H       1.422530000000000      9.105750000000000     -4.758570000000000
H      -0.485280000000000      6.251670000000000     -3.790550000000000
H       0.373120000000000      6.960780000000000     -5.176440000000000
H       1.518850000000000      6.488660000000000     -2.330010000000000
H       1.891230000000000      5.541320000000000     -3.816240000000000
H       2.430910000000000      7.257210000000000     -3.687950000000000
H      -1.552220000000000      9.933970000000000     -5.088860000000000
H      -0.157550000000000     10.514320000000000     -6.076940000000000
H      -0.678430000000000      8.792289999999999     -6.183510000000000
C      -3.400650000000000      6.810440000000000     -5.799010000000000
C      -5.298370000000000      7.485180000000000     -4.523740000000000
O      -3.886220000000000      7.409050000000000     -4.610610000000000
C      -3.755480000000000      7.584410000000000     -7.069190000000000
C      -5.983220000000000      6.118830000000000     -4.490200000000000
H      -2.293180000000000      6.813950000000000     -5.721680000000000
H      -3.688980000000000      5.741700000000000     -5.869750000000000
H      -5.526940000000000      7.982370000000000     -3.556670000000000
H      -5.727400000000000      8.146920000000000     -5.304410000000000
H      -5.544560000000000      5.492850000000000     -3.684760000000000
H      -7.066470000000000      6.256990000000000     -4.290780000000000
H      -5.883680000000000      5.599870000000000     -5.464810000000000
H      -3.427490000000000      8.641280000000000     -6.977560000000000
H      -3.237900000000000      7.120140000000000     -7.934790000000000
H      -4.845230000000000      7.545700000000000     -7.269250000000000
Na      0.407240000000000      8.255050000000001     -1.239320000000000
C      -2.505720000000000      9.541750000000000     -0.275110000000000
C      -2.521760000000000      7.200780000000000     -0.251360000000000
O      -1.980280000000000      8.362040000000000     -0.848040000000000
C      -1.631970000000000     10.718780000000001     -0.691440000000000
C      -3.914230000000000      6.879320000000000     -0.790270000000000
H      -3.533200000000000      9.726670000000000     -0.655200000000000
H      -2.503880000000000      9.505240000000001      0.837500000000000
H      -1.852940000000000      6.353570000000000     -0.515700000000000
H      -2.519440000000000      7.257210000000000      0.859650000000000
H      -3.880020000000000      6.767310000000000     -1.893440000000000
H      -4.270990000000000      5.927270000000000     -0.346930000000000
H      -4.635810000000000      7.677840000000000     -0.523240000000000
H      -1.597550000000000     10.800860000000000     -1.799010000000000
H      -2.044480000000000     11.661220000000000     -0.274670000000000
H      -0.598930000000000     10.582540000000000     -0.308910000000000
C       1.763000000000000      9.047310000000000      1.679400000000000
C       2.828040000000000     10.224250000000000     -0.006520000000000
O       1.758520000000000      9.366560000000000      0.309130000000000
C       0.603660000000000      8.097130000000000      1.948530000000000
C       2.748040000000000     10.553400000000000     -1.491240000000000
H       2.706380000000000      8.529460000000000      1.965050000000000
H       1.610830000000000      9.961169999999999      2.296400000000000
H       2.752630000000000     11.178290000000001      0.562290000000000
H       3.804680000000000      9.725500000000000      0.185640000000000
H       1.781620000000000     11.053760000000000     -1.715270000000000
H       3.579110000000000     11.230200000000000     -1.779000000000000
H       2.816700000000000      9.620930000000000     -2.092570000000000
H       0.721580000000000      7.170150000000000      1.346660000000000
H       0.569520000000000      7.827930000000000      3.024430000000000
H      -0.354220000000000      8.583410000000001      1.670310000000000
Mg     -3.022290000000000     15.841150000000001     -5.687130000000000
H      -2.005440000000000     15.630100000000001     -8.581009999999999
C      -0.420390000000000     16.851369999999999     -7.678970000000000
C      -1.884590000000000     16.491959999999999     -7.893820000000000
C       0.383750000000000     15.748160000000000     -6.971530000000000
H       0.036000000000000     17.089220000000001     -8.662340000000000
H      -0.378150000000000     17.761160000000000     -7.041590000000000
H       1.430930000000000     16.107330000000001     -6.868430000000000
H      -0.022050000000000     15.573060000000000     -5.952610000000000
C       0.401030000000000     14.420940000000000     -7.728550000000000
H      -2.452580000000000     17.359649999999998     -8.287070000000000
H      -0.615760000000000     13.977919999999999     -7.767700000000000
H       0.784150000000000     14.567150000000000     -8.760030000000000
H       1.062540000000000     13.703440000000001     -7.198240000000000
C      -1.071430000000000     15.887300000000000     -3.182790000000000
C      -1.166520000000000     15.305190000000000     -1.928620000000000
C      -2.358900000000000     14.598280000000001     -1.903870000000000
C      -2.929560000000000     14.760770000000001     -3.145680000000000
N      -2.150470000000000     15.551530000000000     -3.902430000000000
C      -4.237410000000000     14.186900000000000     -3.653480000000000
N      -4.347420000000000     14.406060000000000     -5.111340000000000
C      -5.523010000000000     13.934130000000000     -5.863960000000000
H      -0.452180000000000     15.390020000000000     -1.122140000000000
H      -0.265020000000000     16.518429999999999     -3.537280000000000
H      -2.758400000000000     14.022640000000001     -1.079240000000000
H      -5.062820000000000     14.689769999999999     -3.107830000000000
H      -4.246610000000000     13.099950000000000     -3.445230000000000
C      -6.822970000000000     14.525670000000000     -5.289320000000000
C      -5.377880000000000     14.381760000000000     -7.330080000000000
C      -5.576190000000000     12.394080000000001     -5.826190000000000
H      -6.787930000000000     15.635840000000000     -5.315110000000000
H      -7.699160000000000     14.185520000000000     -5.882850000000000
H      -6.982810000000000     14.197350000000000     -4.241890000000000
H      -4.443380000000000     13.977390000000000     -7.775670000000000
H      -6.236990000000000     14.018649999999999     -7.937320000000000
H      -5.346580000000000     15.490110000000000     -7.402490000000000
H      -4.638760000000000     11.967940000000000     -6.246890000000000
H      -5.694940000000000     12.019320000000000     -4.789360000000000
H      -6.433260000000000     12.013579999999999     -6.421480000000000
