170

Mg     -0.354380000000000      0.153560000000000     -0.314860000000000
C       2.056850000000000      0.064260000000000     -2.406050000000000
C       0.182440000000000     -1.180750000000000     -3.195270000000000
O       1.001940000000000     -0.827520000000000     -2.101210000000000
C       1.598620000000000      1.407680000000000     -2.972770000000000
C       0.901390000000000     -2.103850000000000     -4.165540000000000
H       2.552020000000000      0.284700000000000     -1.442990000000000
H       2.839030000000000     -0.414710000000000     -3.027710000000000
H      -0.679350000000000     -1.741670000000000     -2.771970000000000
H      -0.264180000000000     -0.302390000000000     -3.704920000000000
H       1.343840000000000     -2.955950000000000     -3.607780000000000
H       0.177470000000000     -2.490840000000000     -4.912010000000000
H       1.699860000000000     -1.549560000000000     -4.698250000000000
H       0.760610000000000      1.816630000000000     -2.374260000000000
H       2.444690000000000      2.125660000000000     -2.940450000000000
H       1.279590000000000      1.296900000000000     -4.027800000000000
H      -1.892150000000000      2.154570000000000     -0.937920000000000
C      -3.189330000000000      0.404410000000000     -0.851580000000000
C      -1.916820000000000      1.102450000000000     -1.285350000000000
C      -3.272960000000000      0.336820000000000      0.677570000000000
H      -4.042460000000000      0.973740000000000     -1.270740000000000
H      -3.199900000000000     -0.632490000000000     -1.256150000000000
H      -2.470530000000000     -0.325260000000000      1.065160000000000
H      -3.133370000000000      1.345990000000000      1.119180000000000
C      -4.628840000000000     -0.197510000000000      1.121220000000000
H      -1.786530000000000      1.059190000000000     -2.385170000000000
H      -5.427060000000000      0.494630000000000      0.777340000000000
H      -4.812130000000000     -1.207810000000000      0.698400000000000
H      -4.665110000000000     -0.257020000000000      2.229220000000000
C      -1.153200000000000     -2.257100000000000      2.557730000000000
C      -0.959410000000000     -2.679100000000000      1.263970000000000
C       0.219410000000000     -2.112160000000000      0.811980000000000
C       0.714220000000000     -1.348440000000000      1.797860000000000
N      -0.090880000000000     -1.420570000000000      2.944880000000000
C       1.962170000000000     -0.503350000000000      1.726970000000000
N       1.778320000000000      0.660570000000000      0.844560000000000
C       1.510340000000000      1.978680000000000      1.472600000000000
H      -1.627550000000000     -3.322960000000000      0.702950000000000
H      -1.991870000000000     -2.508850000000000      3.187340000000000
H       0.642510000000000     -2.251010000000000     -0.167620000000000
H       2.795650000000000     -1.124820000000000      1.336340000000000
H       2.234580000000000     -0.198870000000000      2.751000000000000
C       2.704480000000000      2.422020000000000      2.338700000000000
C       1.339780000000000      3.009770000000000      0.339600000000000
C       0.214270000000000      1.967070000000000      2.311460000000000
H       3.641980000000000      2.383960000000000      1.744780000000000
H       2.555300000000000      3.461210000000000      2.703140000000000
H       2.825880000000000      1.787550000000000      3.233950000000000
H       0.460770000000000      2.760440000000000     -0.289180000000000
H       1.180250000000000      4.033190000000000      0.745670000000000
H       2.239330000000000      3.029190000000000     -0.312790000000000
H      -0.669870000000000      1.756660000000000      1.672750000000000
H       0.258950000000000      1.207190000000000      3.114790000000000
H       0.056920000000000      2.955630000000000      2.796330000000000
Na     -5.290640000000000     -2.469270000000000     14.590350000000001
C      -6.055740000000000     -4.945980000000000     16.460000000000001
C      -7.259870000000000     -3.127340000000000     17.322230000000001
O      -6.065630000000000     -3.550850000000000     16.692730000000001
C      -6.663640000000000     -5.273030000000000     15.099860000000000
C      -7.126030000000000     -3.168580000000000     18.842390000000002
H      -4.997530000000000     -5.282950000000000     16.459260000000000
H      -6.561640000000000     -5.520850000000000     17.268149999999999
H      -7.449600000000000     -2.076930000000000     17.014479999999999
H      -8.148500000000000     -3.711210000000000     16.994170000000000
H      -6.292420000000000     -2.517140000000000     19.177190000000000
H      -8.066450000000000     -2.802720000000000     19.304800000000000
H      -6.938420000000000     -4.204850000000000     19.191450000000000
H      -6.104680000000000     -4.751540000000000     14.294980000000001
H      -6.608570000000000     -6.367160000000000     14.922840000000001
H      -7.727170000000000     -4.960970000000000     15.061940000000000
C      -8.471710000000000     -2.001770000000000     13.578870000000000
C      -6.928180000000000     -0.858630000000000     12.166150000000000
O      -7.138780000000000     -1.566890000000000     13.375400000000001
C      -8.959250000000001     -3.007300000000000     12.535010000000000
C      -7.702800000000000      0.456650000000000     12.085190000000001
H      -8.484590000000001     -2.526090000000000     14.557399999999999
H      -9.171329999999999     -1.148440000000000     13.691269999999999
H      -5.848420000000000     -0.597140000000000     12.138620000000000
H      -7.100040000000000     -1.497490000000000     11.275399999999999
H      -7.489980000000000      1.079110000000000     12.979640000000000
H      -7.388800000000000      1.010990000000000     11.176100000000000
H      -8.793320000000000      0.272260000000000     12.007720000000001
H      -8.254410000000000     -3.862680000000000     12.469360000000000
H      -9.959000000000000     -3.386750000000000     12.833840000000000
H      -9.064880000000000     -2.530650000000000     11.539669999999999
Na     -4.273820000000000     -2.614780000000000     17.983190000000000
C      -2.519780000000000     -1.542620000000000     15.357820000000000
C      -3.952680000000000      0.103990000000000     16.201760000000000
O      -3.734480000000000     -1.281570000000000     16.030139999999999
C      -2.173570000000000     -3.015960000000000     15.532060000000000
C      -4.483830000000000      0.758620000000000     14.928410000000000
H      -2.633490000000000     -1.342920000000000     14.270680000000000
H      -1.673180000000000     -0.952060000000000     15.774660000000001
H      -4.727560000000000      0.218760000000000     16.989820000000002
H      -3.049020000000000      0.629620000000000     16.582260000000002
H      -5.417230000000000      0.255860000000000     14.601810000000000
H      -4.704860000000000      1.828100000000000     15.127500000000000
H      -3.733900000000000      0.702730000000000     14.114509999999999
H      -2.991280000000000     -3.653150000000000     15.132190000000000
H      -1.235640000000000     -3.251190000000000     14.986549999999999
H      -2.029420000000000     -3.250320000000000     16.607479999999999
C      -1.588160000000000     -2.376940000000000     19.913280000000000
C      -2.245940000000000     -4.593200000000000     19.791260000000001
O      -2.459770000000000     -3.293530000000000     19.296900000000001
C      -1.889110000000000     -0.990440000000000     19.360080000000000
C      -3.195640000000000     -5.537500000000000     19.066590000000001
H      -1.750550000000000     -2.351100000000000     21.014520000000001
H      -0.528560000000000     -2.621050000000000     19.675280000000001
H      -1.204250000000000     -4.928760000000000     19.587009999999999
H      -2.471240000000000     -4.644030000000000     20.880379999999999
H      -2.995090000000000     -5.509120000000000     17.974139999999998
H      -3.055480000000000     -6.576080000000000     19.431640000000002
H      -4.248900000000000     -5.230420000000000     19.245760000000001
H      -2.942740000000000     -0.712340000000000     19.578880000000002
H      -1.213890000000000     -0.239130000000000     19.819269999999999
H      -1.739150000000000     -0.982650000000000     18.260580000000001
Mg      0.907390000000000      1.616470000000000      9.674550000000000
C      -1.943100000000000      2.794040000000000     10.619980000000000
C      -2.130290000000000      0.524910000000000      9.918310000000000
O      -1.567260000000000      1.800270000000000      9.683700000000000
C      -1.536760000000000      2.483350000000000     12.061270000000000
C      -3.619720000000000      0.486920000000000      9.604139999999999
H      -1.393550000000000      3.711060000000000     10.330150000000000
H      -3.016570000000000      3.056340000000000     10.535700000000000
H      -1.623250000000000     -0.177980000000000      9.222239999999999
H      -1.907620000000000      0.135060000000000     10.932119999999999
H      -3.792730000000000      0.860390000000000      8.572810000000000
H      -3.984550000000000     -0.558330000000000      9.679600000000001
H      -4.186390000000000      1.107600000000000     10.326800000000000
H      -0.472910000000000      2.179570000000000     12.105790000000001
H      -1.679880000000000      3.389640000000000     12.685960000000000
H      -2.165520000000000      1.677070000000000     12.484840000000000
H       2.114780000000000      0.473980000000000     11.722379999999999
C       2.059850000000000     -1.026020000000000     10.146150000000000
C       1.403430000000000      0.056030000000000     10.980910000000000
C       3.215680000000000     -0.440200000000000      9.328279999999999
H       2.422100000000000     -1.817590000000000     10.833629999999999
H       1.309220000000000     -1.459150000000000      9.448240000000000
H       2.816250000000000      0.285130000000000      8.587140000000000
H       3.926420000000000      0.094860000000000      9.993530000000000
C       3.975210000000000     -1.539860000000000      8.597500000000000
H       0.501920000000000     -0.330460000000000     11.498670000000001
H       4.417460000000000     -2.239840000000000      9.338360000000000
H       3.297740000000000     -2.101560000000000      7.920200000000000
H       4.795640000000000     -1.092390000000000      7.998180000000000
C       2.424920000000000      1.587400000000000      6.075130000000000
C       1.170020000000000      1.103040000000000      6.364500000000000
C       0.510570000000000      2.076130000000000      7.094270000000000
C       1.340000000000000      3.112440000000000      7.255220000000000
N       2.569690000000000      2.877850000000000      6.608160000000000
C       1.038300000000000      4.381870000000000      8.007790000000000
N       0.933170000000000      4.141360000000000      9.458440000000000
C       2.105380000000000      4.500180000000000     10.296189999999999
H       0.787200000000000      0.131500000000000      6.078970000000000
H       3.192920000000000      1.061430000000000      5.527000000000000
H      -0.496970000000000      2.001420000000000      7.472390000000000
H       0.073770000000000      4.791250000000000      7.639200000000000
H       1.817480000000000      5.125150000000000      7.771340000000000
C       2.358130000000000      6.021950000000000     10.263620000000000
C       1.783740000000000      4.110030000000000     11.751870000000000
C       3.373680000000000      3.732120000000000      9.867860000000000
H       1.435370000000000      6.568030000000000     10.554420000000000
H       3.168210000000000      6.295390000000000     10.973540000000000
H       2.678860000000000      6.377090000000000      9.266040000000000
H       1.634590000000000      3.015050000000000     11.840730000000001
H       2.617770000000000      4.388860000000000     12.433700000000000
H       0.861930000000000      4.621840000000000     12.103400000000001
H       3.218230000000000      2.635860000000000      9.956329999999999
H       3.656660000000000      3.966060000000000      8.823480000000000
H       4.232450000000000      4.008700000000000     10.517890000000000
