95

Mg     -0.410660000000000      0.006290000000000      1.097850000000000
H      -3.262390000000000      0.734150000000000      1.889280000000000
C      -2.996560000000000      2.149310000000000      0.226440000000000
C      -2.484910000000000      1.372720000000000      1.425460000000000
C      -3.590360000000000      1.256360000000000     -0.873410000000000
H      -3.783670000000000      2.842650000000000      0.587520000000000
H      -2.167060000000000      2.753840000000000     -0.198950000000000
H      -4.435200000000000      0.656620000000000     -0.469950000000000
H      -3.986220000000000      1.933890000000000     -1.658070000000000
C      -2.575850000000000      0.319560000000000     -1.535750000000000
H      -2.039130000000000      2.059280000000000      2.178570000000000
H      -2.250990000000000     -0.477410000000000     -0.836990000000000
H      -3.053510000000000     -0.166050000000000     -2.414990000000000
H      -1.688340000000000      0.884190000000000     -1.892930000000000
C      -0.968790000000000     -3.062280000000000      0.492470000000000
C      -0.181350000000000     -4.034130000000000     -0.104440000000000
C       1.013250000000000     -3.424810000000000     -0.453630000000000
C       0.899030000000000     -2.108590000000000     -0.073560000000000
N      -0.294710000000000     -1.903720000000000      0.503510000000000
C       1.926640000000000     -1.006380000000000     -0.227850000000000
N       1.307500000000000      0.303550000000000      0.057420000000000
C       2.077590000000000      1.550540000000000     -0.101440000000000
H      -0.442800000000000     -5.070230000000000     -0.262840000000000
H      -1.965070000000000     -3.201890000000000      0.895220000000000
H       1.864390000000000     -3.882680000000000     -0.939250000000000
H       2.753390000000000     -1.215170000000000      0.482480000000000
H       2.298410000000000     -1.020590000000000     -1.268170000000000
C       2.424170000000000      1.754340000000000     -1.589530000000000
C       1.209650000000000      2.734800000000000      0.361610000000000
C       3.363500000000000      1.514940000000000      0.743470000000000
H       1.493360000000000      1.795350000000000     -2.197300000000000
H       2.986490000000000      2.699970000000000     -1.738970000000000
H       3.055640000000000      0.929600000000000     -1.975870000000000
H       0.947530000000000      2.637940000000000      1.436820000000000
H       1.753590000000000      3.696010000000000      0.221740000000000
H       0.268650000000000      2.784600000000000     -0.225530000000000
H       3.117080000000000      1.363890000000000      1.816270000000000
H       4.034570000000000      0.696030000000000      0.412160000000000
H       3.923260000000000      2.469480000000000      0.639150000000000
Na      0.987330000000000     -7.114460000000000      5.905880000000000
C      -0.021150000000000     -6.356020000000000      2.909740000000000
C       1.143040000000000     -8.343280000000000      2.880270000000000
O       1.169480000000000     -6.999140000000000      3.310390000000000
C       0.015490000000000     -4.905600000000000      3.370020000000000
C       2.421270000000000     -9.035940000000000      3.330440000000000
H      -0.117630000000000     -6.360590000000000      1.801160000000000
H      -0.908490000000000     -6.838810000000000      3.378460000000000
H       0.284430000000000     -8.888570000000000      3.334620000000000
H       1.098160000000000     -8.400259999999999      1.768640000000000
H       2.499630000000000     -9.011950000000001      4.438270000000000
H       2.412800000000000    -10.094490000000000      2.994440000000000
H       3.305710000000000     -8.526820000000001      2.891380000000000
H       0.880160000000000     -4.379560000000000      2.911760000000000
H      -0.920450000000000     -4.392230000000000      3.065410000000000
H       0.103680000000000     -4.857070000000000      4.475820000000000
Na      3.019950000000000     -5.888250000000000      1.794810000000000
Mg      3.394040000000000    -10.831420000000000      8.468999999999999
H       5.779040000000000    -12.878769999999999      8.754330000000000
C       4.977110000000000    -12.970760000000000     10.791430000000000
C       5.290750000000000    -12.224919999999999      9.505030000000000
C       4.053650000000000    -14.177170000000000     10.572490000000000
H       5.936730000000000    -13.324930000000000     11.222320000000000
H       4.505520000000000    -12.272119999999999     11.514870000000000
H       4.519470000000000    -14.889740000000000      9.857440000000000
H       3.935850000000000    -14.690160000000001     11.550230000000001
C       2.659640000000000    -13.793189999999999     10.071640000000000
H       5.930950000000000    -11.341189999999999      9.715479999999999
H       2.709900000000000    -13.354860000000000      9.054560000000000
H       2.024740000000000    -14.704380000000000     10.026820000000001
H       2.181170000000000    -13.067250000000000     10.763339999999999
C       1.899980000000000    -12.345200000000000      6.108210000000000
C       0.638410000000000    -12.178530000000000      5.560510000000000
C       0.023580000000000    -11.155239999999999      6.265870000000000
C       0.927070000000000    -10.756370000000000      7.225750000000000
N       2.057290000000000    -11.467200000000000      7.111410000000000
C       0.750650000000000     -9.678039999999999      8.277770000000000
N       1.857850000000000     -9.749940000000000      9.254540000000000
C       1.908060000000000     -8.840350000000001     10.412879999999999
H       0.213500000000000    -12.736929999999999      4.737610000000000
H       2.649620000000000    -13.058280000000000      5.790150000000000
H      -0.970050000000000    -10.759119999999999      6.107190000000000
H       0.734990000000000     -8.696770000000001      7.762680000000000
H      -0.209820000000000     -9.852080000000001      8.797790000000001
C       0.714500000000000     -9.122980000000000     11.346390000000000
C       3.207920000000000     -9.109810000000000     11.191890000000001
C       1.893040000000000     -7.369750000000000      9.959790000000000
H       0.730080000000000    -10.184990000000001     11.677080000000000
H       0.755290000000000     -8.474040000000000     12.246969999999999
H      -0.251870000000000     -8.929670000000000     10.838580000000000
H       4.097590000000000     -8.911780000000000     10.556649999999999
H       3.269070000000000     -8.455819999999999     12.090310000000001
H       3.249080000000000    -10.166280000000000     11.531639999999999
H       2.753060000000000     -7.163450000000000      9.287440000000000
H       0.953270000000000     -7.127750000000000      9.422190000000001
H       1.959770000000000     -6.692590000000000     10.838740000000000
