95

Mg     -0.411990000000000      0.524800000000000     -0.412090000000000
H      -1.806180000000000     -0.298460000000000     -2.934600000000000
C       0.129170000000000     -1.283980000000000     -3.234510000000000
C      -0.722360000000000     -0.111520000000000     -2.791320000000000
C      -0.049640000000000     -1.495420000000000     -4.732580000000000
H       1.194880000000000     -1.069800000000000     -3.000290000000000
H      -0.182110000000000     -2.191440000000000     -2.671570000000000
H      -1.122030000000000     -1.695660000000000     -4.947320000000000
H       0.260130000000000     -0.572810000000000     -5.270650000000000
C       0.785760000000000     -2.665480000000000     -5.228090000000000
H      -0.400980000000000      0.840010000000000     -3.264150000000000
H       1.863450000000000     -2.475760000000000     -5.037410000000000
H       0.478980000000000     -3.600780000000000     -4.713590000000000
H       0.627970000000000     -2.785310000000000     -6.319770000000000
C      -2.860680000000000      2.064120000000000      0.890430000000000
C      -3.139390000000000      2.387650000000000      2.208560000000000
C      -2.098620000000000      1.886010000000000      2.974460000000000
C      -1.236560000000000      1.271110000000000      2.097430000000000
N      -1.703210000000000      1.388210000000000      0.845470000000000
C       0.068280000000000      0.569700000000000      2.421770000000000
N       0.591290000000000     -0.119530000000000      1.224940000000000
C       1.833620000000000     -0.910570000000000      1.289880000000000
H      -3.999220000000000      2.931630000000000      2.572150000000000
H      -3.465080000000000      2.314570000000000      0.026550000000000
H      -1.983120000000000      1.954020000000000      4.047470000000000
H      -0.123760000000000     -0.170460000000000      3.219510000000000
H       0.783220000000000      1.342640000000000      2.770610000000000
C       1.621190000000000     -2.127820000000000      2.209590000000000
C       2.179290000000000     -1.420500000000000     -0.121240000000000
C       3.001630000000000     -0.050710000000000      1.804710000000000
H       0.788200000000000     -2.757140000000000      1.825730000000000
H       2.539970000000000     -2.749040000000000      2.260890000000000
H       1.373080000000000     -1.814000000000000      3.243180000000000
H       2.357000000000000     -0.571650000000000     -0.815370000000000
H       3.100870000000000     -2.044700000000000     -0.096070000000000
H       1.354600000000000     -2.043410000000000     -0.528610000000000
H       3.149090000000000      0.832740000000000      1.146710000000000
H       2.810840000000000      0.302200000000000      2.838710000000000
H       3.942430000000000     -0.641760000000000      1.821080000000000
Na     -6.334830000000000      2.295690000000000     13.029870000000001
C      -6.677980000000000      2.131120000000000      9.772650000000001
C      -7.237620000000000      0.117150000000000     10.740030000000001
O      -6.256010000000000      1.129210000000000     10.672739999999999
C      -5.610480000000000      3.212920000000000      9.693310000000000
C      -6.784200000000000     -0.952280000000000     11.723580000000000
H      -6.812240000000000      1.712670000000000      8.750340000000000
H      -7.620540000000000      2.608130000000000     10.125600000000000
H      -8.205209999999999      0.528060000000000     11.108750000000001
H      -7.372540000000000     -0.368830000000000      9.746729999999999
H      -6.646900000000000     -0.509600000000000     12.733150000000000
H      -7.549740000000000     -1.754610000000000     11.785100000000000
H      -5.823470000000000     -1.397540000000000     11.388199999999999
H      -4.652790000000000      2.779480000000000      9.334500000000000
H      -5.932460000000000      4.006500000000000      8.986050000000001
H      -5.451600000000000      3.667220000000000     10.694400000000000
Na     -4.254340000000000     -0.043070000000000      9.420050000000000
Mg     -7.278560000000000     -3.401630000000000      4.526420000000000
H      -7.721090000000000     -5.352470000000000      2.174200000000000
C      -8.559390000000000     -3.511530000000000      1.344020000000000
C      -8.339110000000000     -4.485640000000000      2.486580000000000
C      -9.326990000000000     -4.203230000000000      0.221040000000000
H      -9.134140000000000     -2.636610000000000      1.718630000000000
H      -7.571510000000000     -3.156400000000000      0.976970000000000
H      -8.745130000000000     -5.081290000000000     -0.134910000000000
H     -10.308059999999999     -4.554730000000000      0.609100000000000
C      -9.565180000000000     -3.258800000000000     -0.947990000000000
H      -9.301460000000001     -4.819070000000000      2.928300000000000
H     -10.162039999999999     -2.381980000000000     -0.618290000000000
H      -8.595789999999999     -2.910070000000000     -1.363180000000000
H     -10.123980000000000     -3.797060000000000     -1.741470000000000
C      -5.737920000000000     -5.435280000000000      6.408540000000000
C      -4.871800000000000     -5.233240000000000      7.470390000000000
C      -4.731470000000000     -3.861730000000000      7.622340000000000
C      -5.504810000000000     -3.286260000000000      6.638500000000000
N      -6.113010000000000     -4.241620000000000      5.922050000000000
C      -5.698640000000000     -1.807030000000000      6.355280000000000
N      -6.466800000000000     -1.631140000000000      5.104180000000000
C      -6.781120000000000     -0.290400000000000      4.580440000000000
H      -4.397790000000000     -5.998320000000000      8.070040000000001
H      -6.071690000000000     -6.390560000000000      6.023610000000000
H      -4.129390000000000     -3.345250000000000      8.357010000000001
H      -4.701750000000000     -1.339990000000000      6.244260000000000
H      -6.237860000000000     -1.363790000000000      7.217420000000000
C      -5.479350000000000      0.432730000000000      4.187000000000000
C      -7.653350000000000     -0.443420000000000      3.321120000000000
C      -7.555910000000000      0.533710000000000      5.623110000000000
H      -4.925660000000000     -0.159280000000000      3.425240000000000
H      -5.701620000000000      1.433780000000000      3.761060000000000
H      -4.817380000000000      0.579620000000000      5.064160000000000
H      -8.609170000000001     -0.954910000000000      3.563970000000000
H      -7.894330000000000      0.553040000000000      2.887800000000000
H      -7.124300000000000     -1.037130000000000      2.545110000000000
H      -8.493280000000000      0.010170000000000      5.909890000000000
H      -6.944690000000000      0.695010000000000      6.533280000000000
H      -7.818680000000000      1.532680000000000      5.213360000000000
