95

Mg      0.487800000000000     -0.411100000000000     -0.384610000000000
H      -0.374800000000000     -2.444460000000000     -2.411210000000000
C      -1.517570000000000     -3.136040000000000     -0.672440000000000
C      -0.261250000000000     -2.586150000000000     -1.317010000000000
C      -1.801410000000000     -4.524390000000000     -1.231760000000000
H      -1.370340000000000     -3.187100000000000      0.428570000000000
H      -2.365130000000000     -2.447810000000000     -0.885350000000000
H      -1.933310000000000     -4.453650000000000     -2.333580000000000
H      -0.937200000000000     -5.189370000000000     -1.013520000000000
C      -3.057130000000000     -5.121140000000000     -0.615730000000000
H       0.634740000000000     -3.192990000000000     -1.069600000000000
H      -2.937500000000000     -5.215810000000000      0.484550000000000
H      -3.935490000000000     -4.478600000000000     -0.837960000000000
H      -3.227960000000000     -6.128440000000000     -1.048350000000000
C       2.278150000000000      1.334490000000000     -2.336960000000000
C       2.696630000000000      2.653300000000000     -2.258340000000000
C       2.165100000000000      3.174320000000000     -1.088820000000000
C       1.438060000000000      2.160700000000000     -0.510620000000000
N       1.516830000000000      1.056720000000000     -1.268350000000000
C       0.660770000000000      2.206260000000000      0.790750000000000
N      -0.134320000000000      0.972820000000000      0.956910000000000
C      -1.010900000000000      0.789780000000000      2.128160000000000
H       3.321820000000000      3.176490000000000     -2.967840000000000
H       2.522010000000000      0.629630000000000     -3.123210000000000
H       2.286150000000000      4.177830000000000     -0.704460000000000
H      -0.015380000000000      3.079890000000000      0.761160000000000
H       1.396780000000000      2.310430000000000      1.613930000000000
C      -2.153490000000000      1.821850000000000      2.081790000000000
C      -1.625760000000000     -0.621260000000000      2.080910000000000
C      -0.211960000000000      0.936670000000000      3.435000000000000
H      -2.739800000000000      1.702410000000000      1.144070000000000
H      -2.837740000000000      1.692750000000000      2.946480000000000
H      -1.762520000000000      2.858350000000000      2.118090000000000
H      -0.834130000000000     -1.399070000000000      2.128860000000000
H      -2.314330000000000     -0.776670000000000      2.941950000000000
H      -2.207890000000000     -0.766170000000000      1.145850000000000
H       0.619660000000000      0.200720000000000      3.459530000000000
H       0.212410000000000      1.956900000000000      3.530120000000000
H      -0.867750000000000      0.762810000000000      4.315140000000000
Na      0.331990000000000     -6.469920000000000      4.452950000000000
C      -0.907860000000000     -8.760199999999999      2.499420000000000
C      -2.236360000000000     -8.490860000000000      4.362500000000000
O      -0.914670000000000     -8.691990000000001      3.909430000000000
C       0.518620000000000     -8.984280000000000      2.017450000000000
C      -2.235560000000000     -8.404190000000000      5.882270000000000
H      -1.524910000000000     -9.615840000000000      2.141650000000000
H      -1.270280000000000     -7.804830000000000      2.055810000000000
H      -2.649220000000000     -7.534010000000000      3.968980000000000
H      -2.887050000000000     -9.346769999999999      4.071070000000000
H      -1.605550000000000     -7.552680000000000      6.216960000000000
H      -3.272130000000000     -8.249180000000001      6.249840000000000
H      -1.837410000000000     -9.345390000000000      6.318030000000000
H       0.916760000000000     -9.935919999999999      2.429520000000000
H       0.535910000000000     -9.038930000000001      0.908200000000000
H       1.169390000000000     -8.146039999999999      2.345470000000000
Na     -0.362490000000000    -11.160550000000001      4.658300000000000
Mg     -0.702230000000000     -3.955860000000000      8.786560000000000
H      -1.607970000000000     -3.940580000000000     11.811140000000000
C      -0.795970000000000     -1.910670000000000     11.665660000000001
C      -0.801260000000000     -3.383900000000000     11.292630000000001
C      -2.118410000000000     -1.205680000000000     11.333530000000000
H      -0.612390000000000     -1.836540000000000     12.757809999999999
H       0.036620000000000     -1.401040000000000     11.135630000000001
H      -2.959200000000000     -1.700460000000000     11.866740000000000
H      -2.040750000000000     -0.159690000000000     11.698090000000001
C      -2.423790000000000     -1.160200000000000      9.834770000000001
H       0.185100000000000     -3.844140000000000     11.517139999999999
H      -2.599510000000000     -2.178940000000000      9.434270000000000
H      -3.342740000000000     -0.557590000000000      9.668250000000000
H      -1.587850000000000     -0.684080000000000      9.279000000000000
C      -3.557830000000000     -4.611740000000000      7.557680000000000
C      -4.030940000000000     -4.574310000000000      6.256080000000000
C      -2.981800000000000     -4.146190000000000      5.456660000000000
C      -1.921560000000000     -3.921130000000000      6.306320000000000
N      -2.274040000000000     -4.219610000000000      7.564350000000000
C      -0.533390000000000     -3.425050000000000      5.949620000000000
N       0.206330000000000     -3.087470000000000      7.184310000000000
C       1.571980000000000     -2.537200000000000      7.124300000000000
H      -5.027360000000000     -4.832530000000000      5.924520000000000
H      -4.115950000000000     -4.909000000000000      8.436260000000001
H      -2.994770000000000     -4.002010000000000      4.384940000000000
H      -0.019330000000000     -4.226510000000000      5.382240000000000
H      -0.636960000000000     -2.519180000000000      5.323140000000000
C       1.543310000000000     -1.153600000000000      6.446370000000000
C       2.094610000000000     -2.363230000000000      8.561550000000000
C       2.514700000000000     -3.484450000000000      6.361260000000000
H       0.864650000000000     -0.468460000000000      7.000850000000000
H       2.558040000000000     -0.702400000000000      6.425160000000000
H       1.187530000000000     -1.226170000000000      5.399790000000000
H       2.138050000000000     -3.340960000000000      9.087350000000001
H       3.117730000000000     -1.925260000000000      8.556070000000000
H       1.432590000000000     -1.684450000000000      9.139659999999999
H       2.537570000000000     -4.482580000000000      6.848610000000000
H       2.188570000000000     -3.608500000000000      5.308150000000000
H       3.547510000000000     -3.073850000000000      6.345700000000000
