140

Mg     -0.003140000000000      0.311340000000000     -0.383250000000000
C      -1.663820000000000     -2.694330000000000     -1.010760000000000
C       0.685850000000000     -2.940650000000000     -0.670120000000000
O      -0.461610000000000     -2.125120000000000     -0.526770000000000
C      -2.118520000000000     -3.920980000000000     -0.226690000000000
C       1.052610000000000     -3.230600000000000     -2.123200000000000
H      -2.447650000000000     -1.915770000000000     -0.888190000000000
H      -1.621090000000000     -2.907670000000000     -2.095730000000000
H       1.532680000000000     -2.365990000000000     -0.245320000000000
H       0.622340000000000     -3.861060000000000     -0.055050000000000
H       1.108550000000000     -2.284600000000000     -2.700600000000000
H       2.044200000000000     -3.728210000000000     -2.154930000000000
H       0.312160000000000     -3.910470000000000     -2.588340000000000
H      -2.176820000000000     -3.692260000000000      0.856400000000000
H      -3.125760000000000     -4.222540000000000     -0.583430000000000
H      -1.424980000000000     -4.768650000000000     -0.392320000000000
H      -2.350500000000000      0.648660000000000     -2.149980000000000
C      -0.909970000000000     -0.083100000000000     -3.637790000000000
C      -1.284630000000000      0.758630000000000     -2.437780000000000
C      -1.699840000000000      0.385640000000000     -4.846990000000000
H       0.177840000000000      0.012750000000000     -3.833650000000000
H      -1.134020000000000     -1.146110000000000     -3.423700000000000
H      -2.786380000000000      0.287490000000000     -4.632460000000000
H      -1.462560000000000      1.453880000000000     -5.043620000000000
C      -1.351230000000000     -0.443030000000000     -6.072700000000000
H      -0.990460000000000      1.821350000000000     -2.561840000000000
H      -0.268980000000000     -0.346790000000000     -6.304650000000000
H      -1.594490000000000     -1.512230000000000     -5.893550000000000
H      -1.941710000000000     -0.076000000000000     -6.936230000000000
C       0.265740000000000      2.145140000000000      4.114680000000000
C       1.248750000000000      3.011010000000000      3.688300000000000
C       2.019430000000000      2.320640000000000      2.765380000000000
C       1.481460000000000      1.109030000000000      2.651640000000000
N       0.385520000000000      1.014460000000000      3.523200000000000
C       1.947110000000000     -0.064260000000000      1.811230000000000
N       1.846850000000000      0.089070000000000      0.348460000000000
C       2.806380000000000      0.825410000000000     -0.486400000000000
H       1.392440000000000      4.028550000000000      4.029780000000000
H      -0.507950000000000      2.351610000000000      4.839860000000000
H       2.889630000000000      2.707560000000000      2.265750000000000
H       1.277050000000000     -0.913050000000000      2.068140000000000
H       2.961800000000000     -0.374230000000000      2.107200000000000
C       4.209250000000000      0.795930000000000      0.125020000000000
C       2.855840000000000      0.120410000000000     -1.856610000000000
C       2.313990000000000      2.267070000000000     -0.728930000000000
H       4.521810000000000     -0.260660000000000      0.276090000000000
H       4.936210000000000      1.294520000000000     -0.546350000000000
H       4.223130000000000      1.313370000000000      1.101480000000000
H       1.850120000000000      0.106640000000000     -2.322470000000000
H       3.546370000000000      0.643410000000000     -2.552940000000000
H       3.190440000000000     -0.933370000000000     -1.750630000000000
H       1.340770000000000      2.271050000000000     -1.268650000000000
H       2.163710000000000      2.823480000000000      0.206300000000000
H       3.047260000000000      2.826480000000000     -1.348090000000000
C      -2.203760000000000      1.438890000000000      1.580480000000000
C      -1.843630000000000     -0.831290000000000      2.112960000000000
O      -1.789930000000000      0.169120000000000      1.115780000000000
C      -1.357990000000000      2.535330000000000      0.928650000000000
C      -3.266920000000000     -1.298060000000000      2.341800000000000
H      -3.261590000000000      1.591450000000000      1.286810000000000
H      -2.113580000000000      1.555050000000000      2.681890000000000
H      -1.235940000000000     -1.691670000000000      1.769050000000000
H      -1.380390000000000     -0.524570000000000      3.066390000000000
H      -3.706400000000000     -1.646680000000000      1.384690000000000
H      -3.262850000000000     -2.130920000000000      3.074630000000000
H      -3.869490000000000     -0.459890000000000      2.746180000000000
H      -0.291290000000000      2.431750000000000      1.196780000000000
H      -1.434010000000000      2.495130000000000     -0.176320000000000
H      -1.704230000000000      3.531640000000000      1.272280000000000
Na      5.568850000000000     -3.925900000000000      2.183690000000000
C       7.766480000000000     -3.262890000000000      4.528480000000000
C       5.770020000000000     -2.203820000000000      4.972680000000000
O       6.759690000000000     -2.431430000000000      3.992350000000000
C       8.836399999999999     -3.496200000000000      3.471320000000000
C       4.678390000000000     -1.322660000000000      4.384000000000000
H       8.255190000000001     -2.778100000000000      5.404280000000000
H       7.348630000000000     -4.255210000000000      4.814140000000000
H       5.298010000000000     -3.161650000000000      5.287260000000000
H       6.199910000000000     -1.672720000000000      5.852080000000000
H       4.217360000000000     -1.828750000000000      3.510350000000000
H       3.892620000000000     -1.135430000000000      5.146290000000000
H       5.103910000000000     -0.348560000000000      4.060520000000000
H       9.287879999999999     -2.528900000000000      3.164160000000000
H       9.634520000000000     -4.149810000000000      3.883010000000000
H       8.392650000000000     -3.989310000000000      2.580450000000000
Na      7.941650000000000     -0.086930000000000      3.747030000000000
Mg      2.767540000000000     -7.788620000000000      6.845890000000000
C       0.825140000000000    -10.475560000000000      6.341380000000000
C       1.308190000000000     -9.415459999999999      4.254400000000000
O       1.323050000000000     -9.333290000000000      5.665290000000000
C       1.447180000000000    -11.806960000000000      5.912490000000000
C      -0.101780000000000     -9.447950000000001      3.677410000000000
H       1.091210000000000    -10.340719999999999      7.408870000000000
H      -0.282610000000000    -10.510700000000000      6.299510000000000
H       1.796820000000000     -8.496570000000000      3.875740000000000
H       1.939250000000000    -10.244719999999999      3.877620000000000
H      -0.040690000000000     -9.398630000000001      2.570190000000000
H      -0.686090000000000     -8.579459999999999      4.045800000000000
H      -0.616880000000000    -10.386760000000001      3.961730000000000
H       2.549560000000000    -11.755210000000000      5.967750000000000
H       1.134810000000000    -12.077830000000001      4.883820000000000
H       1.105140000000000    -12.610239999999999      6.595850000000000
H       0.823210000000000     -5.924880000000000      6.839650000000000
C       2.484250000000000     -4.949200000000000      5.798030000000000
C       1.923480000000000     -5.822300000000000      6.931690000000000
C       2.303530000000000     -5.527910000000000      4.381030000000000
H       2.008520000000000     -3.947070000000000      5.847660000000000
H       3.575300000000000     -4.828500000000000      5.965810000000000
H       2.759280000000000     -4.816820000000000      3.655810000000000
H       2.850960000000000     -6.488900000000000      4.295550000000000
C       0.843200000000000     -5.733910000000000      3.977970000000000
H       2.161900000000000     -5.365700000000000      7.912820000000000
H       0.358480000000000     -6.482250000000000      4.635090000000000
H       0.283490000000000     -4.777100000000000      4.032630000000000
H       0.795830000000000     -6.112130000000000      2.933120000000000
C       4.834810000000000     -9.718310000000001      4.064560000000000
C       5.148830000000000     -8.441330000000001      4.471780000000000
C       5.104340000000000     -8.426119999999999      5.853570000000000
C       4.754250000000000     -9.644040000000000      6.274740000000000
N       4.591160000000000    -10.526160000000001      5.186140000000000
C       4.521420000000000    -10.031879999999999      7.709790000000000
N       3.418320000000000     -9.222790000000000      8.247470000000000
C       3.096950000000000     -9.316079999999999      9.692090000000000
H       5.368460000000000     -7.605940000000000      3.820820000000000
H       4.769860000000000    -10.055339999999999      3.039120000000000
H       5.277780000000000     -7.565210000000000      6.486940000000000
H       5.458850000000000     -9.866520000000000      8.274979999999999
H       4.248270000000000    -11.107260000000000      7.746110000000000
C       4.248570000000000     -8.754239999999999     10.549460000000000
C       1.829070000000000     -8.491660000000000      9.968170000000001
C       2.822890000000000    -10.782769999999999     10.101290000000001
H       4.451730000000000     -7.695780000000000     10.284240000000000
H       3.988690000000000     -8.804750000000000     11.629980000000000
H       5.179930000000000     -9.340870000000001     10.414569999999999
H       0.968720000000000     -8.883640000000000      9.386049999999999
H       1.562160000000000     -8.533799999999999     11.048209999999999
H       1.987590000000000     -7.428600000000000      9.690580000000001
H       1.992330000000000    -11.210350000000000      9.500349999999999
H       3.721390000000000    -11.419200000000000      9.961380000000000
H       2.539580000000000    -10.846550000000001     11.174870000000000
