115

Na     -0.311580000000000      0.008420000000000      0.201490000000000
C      -1.024790000000000     -2.291160000000000     -1.814370000000000
C      -2.773690000000000     -2.098830000000000     -0.254440000000000
O      -1.423280000000000     -1.812140000000000     -0.546210000000000
C      -1.276830000000000     -1.254200000000000     -2.905310000000000
C      -2.882750000000000     -3.430580000000000      0.476710000000000
H       0.067850000000000     -2.478830000000000     -1.769200000000000
H      -1.495060000000000     -3.264880000000000     -2.070460000000000
H      -3.151730000000000     -1.297180000000000      0.416840000000000
H      -3.425530000000000     -2.078800000000000     -1.155810000000000
H      -2.266850000000000     -3.408950000000000      1.401220000000000
H      -3.940790000000000     -3.618620000000000      0.752500000000000
H      -2.528160000000000     -4.256250000000000     -0.173550000000000
H      -0.760930000000000     -0.302500000000000     -2.661650000000000
H      -0.880260000000000     -1.634430000000000     -3.870200000000000
H      -2.362400000000000     -1.059150000000000     -3.019480000000000
C       0.529110000000000      2.205400000000000      2.366060000000000
C      -0.377360000000000      0.324880000000000      3.427590000000000
O      -0.251720000000000      1.039300000000000      2.219980000000000
C       2.019700000000000      1.907580000000000      2.214220000000000
C      -1.096640000000000     -0.987550000000000      3.132360000000000
H       0.241550000000000      2.892070000000000      1.541790000000000
H       0.312250000000000      2.747060000000000      3.312730000000000
H       0.614590000000000      0.073890000000000      3.858840000000000
H      -0.984590000000000      0.902530000000000      4.157240000000000
H      -0.514400000000000     -1.592150000000000      2.403930000000000
H      -1.220500000000000     -1.576190000000000      4.065000000000000
H      -2.099210000000000     -0.783650000000000      2.699970000000000
H       2.211500000000000      1.386540000000000      1.253580000000000
H       2.588490000000000      2.860860000000000      2.219320000000000
H       2.386310000000000      1.276680000000000      3.048490000000000
C      -1.647030000000000      2.669040000000000     -0.862190000000000
C       0.363380000000000      2.461550000000000     -2.061410000000000
O      -0.441160000000000      1.949160000000000     -1.020730000000000
C      -2.763400000000000      2.047870000000000     -1.695150000000000
C       1.342800000000000      3.496050000000000     -1.519770000000000
H      -1.938480000000000      2.604670000000000      0.208050000000000
H      -1.535080000000000      3.752700000000000     -1.089230000000000
H       0.946030000000000      1.615710000000000     -2.481870000000000
H      -0.231900000000000      2.874140000000000     -2.906250000000000
H       1.961880000000000      3.052040000000000     -0.711790000000000
H       2.012430000000000      3.836010000000000     -2.336950000000000
H       0.795440000000000      4.371620000000000     -1.114730000000000
H      -2.906860000000000      0.983430000000000     -1.411490000000000
H      -3.711180000000000      2.596110000000000     -1.510530000000000
H      -2.521270000000000      2.106940000000000     -2.776180000000000
C       2.860860000000000     -0.455280000000000     -1.058130000000000
C       2.051380000000000     -2.115630000000000      0.394460000000000
O       1.774280000000000     -0.900330000000000     -0.273070000000000
C       2.762720000000000     -0.999640000000000     -2.479320000000000
C       2.657820000000000     -1.856320000000000      1.768910000000000
H       2.806860000000000      0.652370000000000     -1.105670000000000
H       3.847930000000000     -0.695650000000000     -0.604900000000000
H       1.086720000000000     -2.647510000000000      0.539430000000000
H       2.694730000000000     -2.798780000000000     -0.203200000000000
H       1.977920000000000     -1.222480000000000      2.371660000000000
H       2.804870000000000     -2.821340000000000      2.297530000000000
H       3.637140000000000     -1.344980000000000      1.674800000000000
H       1.794070000000000     -0.709190000000000     -2.937440000000000
H       3.587000000000000     -0.580180000000000     -3.093150000000000
H       2.843870000000000     -2.105750000000000     -2.478830000000000
Mg      3.313820000000000     -0.986490000000000      9.896480000000000
C       2.184270000000000      1.145770000000000      7.804600000000000
C       4.199470000000000      0.144890000000000      7.015090000000000
O       3.484000000000000      0.677950000000000      8.109330000000000
C       1.250210000000000      0.077180000000000      7.237810000000000
C       4.638490000000000      1.228970000000000      6.044270000000000
H       1.745890000000000      1.464450000000000      8.767730000000000
H       2.208150000000000      2.062500000000000      7.182780000000000
H       5.116450000000000     -0.320470000000000      7.438430000000000
H       3.662450000000000     -0.681490000000000      6.505790000000000
H       5.154960000000000      2.038400000000000      6.602140000000000
H       5.335950000000000      0.795670000000000      5.298110000000000
H       3.758980000000000      1.642660000000000      5.511320000000000
H       1.314600000000000     -0.852700000000000      7.836860000000000
H       0.205340000000000      0.450920000000000      7.268100000000000
H       1.507930000000000     -0.144660000000000      6.184200000000000
H       2.349370000000000     -3.318450000000000      9.274150000000001
C       4.513680000000000     -3.567170000000000      9.360390000000001
C       3.272960000000000     -2.814040000000000      8.926550000000001
C       4.614170000000000     -3.605890000000000     10.889559999999999
H       4.447040000000000     -4.590660000000000      8.941290000000000
H       5.417010000000000     -3.057980000000000      8.955830000000001
H       4.786590000000000     -2.580000000000000     11.277189999999999
H       3.670370000000000     -3.989400000000000     11.331250000000001
C       5.754680000000000     -4.513250000000000     11.333170000000001
H       3.245190000000000     -2.679520000000000      7.826750000000000
H       5.554120000000000     -5.550560000000000     10.989340000000000
H       6.721350000000000     -4.167080000000000     10.910349999999999
H       5.824430000000000     -4.514960000000000     12.441170000000000
C       5.800820000000000     -0.473270000000000     12.768370000000001
C       6.069960000000000     -0.094760000000000     11.474430000000000
C       4.989600000000000      0.642690000000000     11.022550000000001
C       4.080490000000000      0.689920000000000     12.007479999999999
N       4.545720000000000      0.028480000000000     13.155180000000000
C       2.724810000000000      1.348080000000000     11.936909999999999
N       1.808210000000000      0.606610000000000     11.055149999999999
C       0.801040000000000     -0.284190000000000     11.684100000000001
H       6.961540000000000     -0.351760000000000     10.913930000000001
H       6.438130000000000     -1.073870000000000     13.398280000000000
H       4.898370000000000      1.078530000000000     10.042560000000000
H       2.846010000000000      2.380540000000000     11.545880000000000
H       2.324510000000000      1.432270000000000     12.960470000000001
C      -0.178370000000000      0.528140000000000     12.553680000000000
C      -0.007810000000000     -0.946700000000000     10.551200000000000
C       1.459360000000000     -1.402390000000000     12.520320000000000
H      -0.613200000000000      1.360620000000000     11.960860000000000
H      -1.005690000000000     -0.120670000000000     12.913670000000000
H       0.309140000000000      0.946590000000000     13.454590000000000
H       0.647230000000000     -1.583500000000000      9.922050000000000
H      -0.814120000000000     -1.596780000000000     10.957390000000000
H      -0.474390000000000     -0.177290000000000      9.899070000000000
H       2.082560000000000     -2.062860000000000     11.880730000000000
H       2.096470000000000     -0.984740000000000     13.322920000000000
H       0.681890000000000     -2.032820000000000     13.005400000000000
