130

Na     -0.032600000000000      0.148140000000000     -0.356600000000000
C      -2.487710000000000      1.441920000000000      1.111460000000000
C      -2.369280000000000      2.327730000000000     -1.063460000000000
O      -1.681970000000000      1.658270000000000     -0.028880000000000
C      -3.238850000000000      0.116710000000000      1.018790000000000
C      -2.177350000000000      3.833200000000000     -0.934250000000000
H      -1.811530000000000      1.389160000000000      1.989610000000000
H      -3.184610000000000      2.284790000000000      1.308430000000000
H      -1.928590000000000      1.998720000000000     -2.029750000000000
H      -3.448380000000000      2.061060000000000     -1.110250000000000
H      -1.094330000000000      4.081180000000000     -0.943970000000000
H      -2.672480000000000      4.346210000000000     -1.784270000000000
H      -2.622140000000000      4.197370000000000      0.014350000000000
H      -2.527540000000000     -0.722150000000000      0.871790000000000
H      -3.797030000000000     -0.054330000000000      1.963270000000000
H      -3.960680000000000      0.131610000000000      0.177200000000000
C       2.591270000000000     -1.020450000000000     -1.759460000000000
C       2.414310000000000      1.281600000000000     -2.156680000000000
O       1.742030000000000      0.106410000000000     -1.766400000000000
C       3.342300000000000     -1.149190000000000     -0.436010000000000
C       1.459090000000000      2.457970000000000     -1.979720000000000
H       1.942440000000000     -1.915850000000000     -1.862150000000000
H       3.284320000000000     -1.036230000000000     -2.629060000000000
H       3.305900000000000      1.474300000000000     -1.522310000000000
H       2.704690000000000      1.222910000000000     -3.227640000000000
H       1.146620000000000      2.545980000000000     -0.916830000000000
H       1.952940000000000      3.403850000000000     -2.284850000000000
H       0.552000000000000      2.309050000000000     -2.603130000000000
H       2.629190000000000     -1.152870000000000      0.413580000000000
H       3.913770000000000     -2.101010000000000     -0.424450000000000
H       4.052040000000000     -0.310630000000000     -0.304960000000000
C      -1.088480000000000     -2.351460000000000     -1.979200000000000
C      -0.776180000000000     -3.124400000000000      0.218060000000000
O      -0.609490000000000     -2.051260000000000     -0.683840000000000
C      -2.545400000000000     -1.926840000000000     -2.130980000000000
C       0.466250000000000     -4.007000000000000      0.233910000000000
H      -0.481900000000000     -1.768660000000000     -2.705090000000000
H      -0.954240000000000     -3.422220000000000     -2.250930000000000
H      -0.910590000000000     -2.692510000000000      1.231520000000000
H      -1.692480000000000     -3.722450000000000      0.015310000000000
H       1.362990000000000     -3.402660000000000      0.486570000000000
H       0.345480000000000     -4.803330000000000      0.997480000000000
H       0.617540000000000     -4.479190000000000     -0.758270000000000
H      -2.652700000000000     -0.841560000000000     -1.919490000000000
H      -2.880640000000000     -2.121380000000000     -3.171510000000000
H      -3.192060000000000     -2.499000000000000     -1.434430000000000
C       0.906890000000000     -0.678540000000000      2.852950000000000
C       1.132110000000000      1.578360000000000      2.238830000000000
O       0.720850000000000      0.286190000000000      1.838220000000000
C      -0.338650000000000     -0.796130000000000      3.725210000000000
C       2.598710000000000      1.814710000000000      1.894880000000000
H       1.077070000000000     -1.656640000000000      2.356570000000000
H       1.811660000000000     -0.485950000000000      3.470900000000000
H       0.522940000000000      2.315550000000000      1.673010000000000
H       0.937240000000000      1.778110000000000      3.315810000000000
H       2.762790000000000      1.668440000000000      0.809060000000000
H       2.878230000000000      2.856190000000000      2.158640000000000
H       3.251240000000000      1.114460000000000      2.454860000000000
H      -1.224680000000000     -1.038820000000000      3.101790000000000
H      -0.193490000000000     -1.607440000000000      4.468770000000000
H      -0.527240000000000      0.154350000000000      4.264730000000000
Mg      9.256790000000001      1.222740000000000      2.482030000000000
C       8.364110000000000      4.365620000000000      3.755960000000000
C       7.539100000000000      3.947290000000000      1.556550000000000
O       8.084239999999999      3.411820000000000      2.747780000000000
C       7.119280000000000      5.043030000000000      4.320660000000000
C       8.486780000000000      4.891510000000000      0.821100000000000
H       8.841350000000000      3.806570000000000      4.589670000000000
H       9.112109999999999      5.113580000000000      3.430800000000000
H       7.366590000000000      3.088870000000000      0.877340000000000
H       6.537170000000000      4.393150000000000      1.720280000000000
H       9.473929999999999      4.406120000000000      0.675120000000000
H       8.057359999999999      5.135870000000000     -0.172760000000000
H       8.614030000000000      5.838410000000000      1.381610000000000
H       6.384650000000000      4.286790000000000      4.662980000000000
H       7.413970000000000      5.672730000000000      5.186270000000000
H       6.652280000000000      5.699330000000000      3.560230000000000
H      11.295050000000000      2.344710000000000      4.332040000000000
C      11.828910000000000      3.469270000000000      2.524690000000000
C      11.398320000000000      2.204970000000000      3.236170000000000
C      13.208580000000000      3.878210000000000      3.011820000000000
H      11.850099999999999      3.289640000000000      1.429980000000000
H      11.096710000000000      4.273470000000000      2.733140000000000
H      13.171820000000000      4.049710000000000      4.109770000000000
H      13.928360000000000      3.058920000000000      2.795430000000000
C      13.669499999999999      5.150350000000000      2.319020000000000
H      12.050140000000001      1.342530000000000      2.985620000000000
H      13.720610000000001      4.990940000000000      1.220700000000000
H      12.964930000000001      5.981340000000000      2.536970000000000
H      14.677190000000000      5.420910000000000      2.693930000000000
C       6.604990000000000     -2.783260000000000      3.470080000000000
C       7.265220000000000     -3.410230000000000      2.444910000000000
C       7.475820000000000     -2.472850000000000      1.440210000000000
C       6.973080000000000     -1.300120000000000      1.852580000000000
N       6.390840000000000     -1.443160000000000      3.121120000000000
C       6.925470000000000      0.017420000000000      1.102640000000000
N       8.215579999999999      0.681860000000000      0.854980000000000
C       9.139040000000000      0.339130000000000     -0.237660000000000
H       7.556940000000000     -4.452930000000000      2.439420000000000
H       6.290790000000000     -3.229690000000000      4.403120000000000
H       7.948970000000000     -2.683240000000000      0.499200000000000
H       6.352650000000000      0.715610000000000      1.752430000000000
H       6.341470000000000     -0.081780000000000      0.173430000000000
C       8.385770000000001     -0.227530000000000     -1.444350000000000
C       9.840190000000000      1.642800000000000     -0.666080000000000
C      10.230140000000000     -0.627410000000000      0.265990000000000
H       7.615490000000000      0.503710000000000     -1.774030000000000
H       9.083510000000000     -0.417640000000000     -2.284330000000000
H       7.885430000000000     -1.178430000000000     -1.184650000000000
H      10.383649999999999      2.090080000000000      0.190520000000000
H      10.576779999999999      1.455310000000000     -1.477080000000000
H       9.102530000000000      2.392520000000000     -1.023140000000000
H      10.833790000000000     -0.159900000000000      1.075580000000000
H       9.812690000000000     -1.558230000000000      0.674430000000000
H      10.922129999999999     -0.893980000000000     -0.561250000000000
C       8.686640000000001     -0.329180000000000      5.171720000000000
C       6.919180000000000      1.197750000000000      4.832000000000000
O       8.276920000000000      0.890380000000000      4.584400000000000
C       9.682770000000000     -1.041660000000000      4.253940000000000
C       6.724870000000000      1.731020000000000      6.236070000000000
H       9.194590000000000     -0.103220000000000      6.130800000000000
H       7.845760000000000     -1.030310000000000      5.362460000000000
H       6.605160000000000      1.973050000000000      4.105060000000000
H       6.236350000000000      0.351040000000000      4.653210000000000
H       7.379310000000000      2.611650000000000      6.398220000000000
H       5.663230000000000      2.025720000000000      6.366810000000000
H       6.974960000000000      0.937390000000000      6.968820000000000
H       9.220400000000000     -1.296460000000000      3.282880000000000
H      10.566390000000000     -0.403340000000000      4.052490000000000
H      10.027049999999999     -1.982900000000000      4.729690000000000
