130

Na      0.260500000000000     -0.199570000000000     -0.204390000000000
C      -1.132980000000000      1.413420000000000     -2.511930000000000
C       0.645160000000000      0.180580000000000     -3.432370000000000
O       0.072700000000000      0.720640000000000     -2.261200000000000
C      -2.337620000000000      0.479670000000000     -2.435070000000000
C       1.620760000000000      1.175140000000000     -4.048090000000000
H      -1.245670000000000      2.180280000000000     -1.718000000000000
H      -1.115520000000000      1.966750000000000     -3.475490000000000
H       1.209780000000000     -0.732240000000000     -3.142390000000000
H      -0.115530000000000     -0.150190000000000     -4.173810000000000
H       2.402330000000000      1.450020000000000     -3.307740000000000
H       2.107960000000000      0.719080000000000     -4.934380000000000
H       1.085020000000000      2.093330000000000     -4.364650000000000
H      -2.370930000000000     -0.029130000000000     -1.449540000000000
H      -3.268420000000000      1.072260000000000     -2.558750000000000
H      -2.294260000000000     -0.285270000000000     -3.236660000000000
C       1.794050000000000     -1.664000000000000      2.187900000000000
C       3.332560000000000     -0.684570000000000      0.716900000000000
O       2.009200000000000     -1.132340000000000      0.899200000000000
C       1.439560000000000     -0.571450000000000      3.194670000000000
C       3.412490000000000      0.009890000000000     -0.638850000000000
H       0.919170000000000     -2.344440000000000      2.114530000000000
H       2.645440000000000     -2.287280000000000      2.538730000000000
H       3.626880000000000      0.054590000000000      1.492590000000000
H       4.035880000000000     -1.545070000000000      0.714720000000000
H       2.719900000000000      0.878120000000000     -0.670750000000000
H       4.440860000000000      0.373550000000000     -0.827310000000000
H       3.131270000000000     -0.697880000000000     -1.446950000000000
H       0.575100000000000      0.021350000000000      2.830700000000000
H       1.165440000000000     -1.038060000000000      4.163930000000000
H       2.299300000000000      0.107340000000000      3.362910000000000
C      -1.033760000000000     -3.082860000000000     -0.130340000000000
C      -2.506240000000000     -1.711350000000000      1.083560000000000
O      -1.263320000000000     -1.801630000000000      0.420330000000000
C      -1.526690000000000     -3.150130000000000     -1.572010000000000
C      -2.348330000000000     -2.045040000000000      2.562260000000000
H       0.063780000000000     -3.255840000000000     -0.132570000000000
H      -1.476050000000000     -3.900480000000000      0.481450000000000
H      -2.856200000000000     -0.661640000000000      0.997970000000000
H      -3.295790000000000     -2.337550000000000      0.611500000000000
H      -1.592680000000000     -1.377430000000000      3.027570000000000
H      -3.319230000000000     -1.901380000000000      3.080410000000000
H      -2.025050000000000     -3.098540000000000      2.688380000000000
H      -1.027780000000000     -2.369360000000000     -2.184820000000000
H      -1.284980000000000     -4.146130000000000     -1.999220000000000
H      -2.625010000000000     -2.999910000000000     -1.615120000000000
C      -1.427190000000000      2.041170000000000      1.796180000000000
C       0.429850000000000      2.870960000000000      0.619290000000000
O      -0.394580000000000      1.751440000000000      0.877000000000000
C      -2.681560000000000      2.517310000000000      1.071220000000000
C       1.603550000000000      2.918450000000000      1.591000000000000
H      -1.671350000000000      1.100050000000000      2.331680000000000
H      -1.117050000000000      2.768420000000000      2.578770000000000
H       0.838600000000000      2.758650000000000     -0.407720000000000
H      -0.132440000000000      3.830950000000000      0.625460000000000
H       2.186350000000000      1.978200000000000      1.530330000000000
H       2.269670000000000      3.766420000000000      1.327160000000000
H       1.245080000000000      3.053070000000000      2.631580000000000
H      -3.009040000000000      1.759410000000000      0.329020000000000
H      -3.497910000000000      2.670630000000000      1.807590000000000
H      -2.487950000000000      3.475180000000000      0.546770000000000
Mg      9.596430000000000      1.916330000000000      1.967720000000000
C       8.703560000000000      5.059170000000000      3.241220000000000
C       7.878780000000000      4.640840000000000      1.041740000000000
O       8.423840000000000      4.105390000000000      2.233010000000000
C       7.458680000000000      5.736540000000000      3.805880000000000
C       8.826370000000001      5.585070000000000      0.306260000000000
H       9.180740000000000      4.500110000000000      4.074940000000000
H       9.451520000000000      5.807180000000000      2.916080000000000
H       7.706340000000000      3.782380000000000      0.362550000000000
H       6.876920000000000      5.086800000000000      1.205440000000000
H       9.813490000000000      5.099680000000000      0.160220000000000
H       8.396839999999999      5.829390000000000     -0.687570000000000
H       8.953530000000001      6.531980000000000      0.866770000000000
H       6.724080000000000      4.980290000000000      4.148230000000000
H       7.753300000000000      6.366260000000000      4.671490000000000
H       6.991650000000000      6.392820000000000      3.045450000000000
H      11.634290000000000      3.038140000000000      3.817220000000000
C      12.168150000000001      4.162700000000000      2.009830000000000
C      11.737670000000000      2.898420000000000      2.721360000000000
C      13.547790000000001      4.571650000000000      2.496940000000000
H      12.189320000000000      3.983060000000000      0.915130000000000
H      11.435919999999999      4.966880000000000      2.218280000000000
H      13.511020000000000      4.743150000000000      3.594900000000000
H      14.267560000000000      3.752350000000000      2.280560000000000
C      14.008690000000000      5.843790000000000      1.804140000000000
H      12.389400000000000      2.035940000000000      2.470770000000000
H      14.059790000000000      5.684360000000000      0.705820000000000
H      13.304110000000000      6.674770000000000      2.022090000000000
H      15.016370000000000      6.114340000000000      2.179040000000000
C       6.941970000000000     -2.090150000000000      2.955050000000000
C       7.602900000000000     -2.717090000000000      1.930300000000000
C       7.814480000000000     -1.779660000000000      0.925980000000000
C       7.311930000000000     -0.606950000000000      1.338270000000000
N       6.728370000000000     -0.750010000000000      2.606210000000000
C       7.265620000000000      0.710560000000000      0.588540000000000
N       8.555720000000001      1.374750000000000      0.340930000000000
C       9.478790000000000      1.032380000000000     -0.752170000000000
H       7.894800000000000     -3.759720000000000      1.924850000000000
H       6.627340000000000     -2.536580000000000      3.887880000000000
H       8.288320000000001     -1.989880000000000     -0.014760000000000
H       6.692380000000000      1.408770000000000      1.237800000000000
H       6.683420000000000      0.611110000000000     -0.341010000000000
C       8.725500000000000      0.465790000000000     -1.958940000000000
C      10.179639999999999      2.336170000000000     -1.180700000000000
C      10.569800000000001      0.065820000000000     -0.248790000000000
H       7.955260000000000      1.197060000000000     -2.288630000000000
H       9.423150000000000      0.275800000000000     -2.799020000000000
H       8.225250000000001     -0.485200000000000     -1.699380000000000
H      10.723089999999999      2.783540000000000     -0.324180000000000
H      10.916100000000000      2.148770000000000     -1.991830000000000
H       9.441830000000000      3.085780000000000     -1.537730000000000
H      11.173380000000000      0.533310000000000      0.560830000000000
H      10.152110000000000     -0.864940000000000      0.159600000000000
H      11.261649999999999     -0.200710000000000     -1.076140000000000
C       9.025860000000000      0.364000000000000      4.656900000000000
C       7.258560000000000      1.890990000000000      4.317330000000000
O       8.616260000000000      1.583640000000000      4.069750000000000
C      10.021920000000000     -0.348400000000000      3.739020000000000
C       7.064200000000000      2.424280000000000      5.721370000000000
H       9.533810000000001      0.589870000000000      5.615990000000000
H       8.184930000000000     -0.337130000000000      4.847510000000000
H       6.944710000000000      2.666370000000000      3.590430000000000
H       6.575740000000000      1.044250000000000      4.138460000000000
H       7.718610000000000      3.304930000000000      5.883500000000000
H       6.002560000000000      2.719000000000000      5.852080000000000
H       7.314250000000000      1.630670000000000      6.454140000000000
H       9.559450000000000     -0.603130000000000      2.768000000000000
H      10.905519999999999      0.289950000000000      3.537580000000000
H      10.366230000000000     -1.289640000000000      4.214730000000000
