70

Na      0.121610000000000      1.982990000000000     -0.916850000000000
C      -0.355670000000000     -0.429210000000000      1.488680000000000
C       0.223970000000000     -1.430740000000000     -0.517640000000000
O      -0.018500000000000     -0.207760000000000      0.138520000000000
C      -0.603860000000000      0.923660000000000      2.145160000000000
C       0.582420000000000     -1.131290000000000     -1.968170000000000
H      -1.289940000000000     -1.029550000000000      1.571760000000000
H       0.479330000000000     -0.928420000000000      2.030950000000000
H       1.083690000000000     -1.965120000000000     -0.055070000000000
H      -0.686150000000000     -2.072560000000000     -0.512150000000000
H       1.490440000000000     -0.491940000000000     -2.011220000000000
H       0.781350000000000     -2.074510000000000     -2.518600000000000
H      -0.255030000000000     -0.595190000000000     -2.464450000000000
H      -1.434460000000000      1.450780000000000      1.627990000000000
H      -0.873480000000000      0.790550000000000      3.213660000000000
H       0.311000000000000      1.551380000000000      2.080850000000000
Mg      1.144830000000000     -5.974440000000000      5.477200000000000
C       0.919740000000000     -5.406450000000000      8.611720000000000
C       1.187530000000000     -3.380470000000000      7.382850000000000
O       1.560190000000000     -4.732490000000000      7.545590000000000
C      -0.603630000000000     -5.454790000000000      8.498260000000000
C       1.746600000000000     -2.502580000000000      8.490629999999999
H       1.269690000000000     -6.453330000000000      8.559139999999999
H       1.261000000000000     -5.039430000000000      9.599890000000000
H       1.641140000000000     -3.044350000000000      6.424840000000000
H       0.094510000000000     -3.244000000000000      7.250920000000000
H       2.836630000000000     -2.686620000000000      8.595039999999999
H       1.577690000000000     -1.435750000000000      8.236910000000000
H       1.235410000000000     -2.725880000000000      9.448440000000000
H      -0.908150000000000     -5.745060000000000      7.473210000000000
H      -0.999840000000000     -6.204580000000000      9.214670000000000
H      -1.044300000000000     -4.470050000000000      8.749710000000000
H      -1.241620000000000     -5.841130000000000      4.457010000000000
C      -0.013410000000000     -4.468170000000000      3.290060000000000
C      -0.487380000000000     -5.043360000000000      4.609090000000000
C       0.685690000000000     -5.545750000000000      2.453440000000000
H      -0.900990000000000     -4.068560000000000      2.760660000000000
H       0.706870000000000     -3.641700000000000      3.482730000000000
H       1.627270000000000     -5.853710000000000      2.954700000000000
H       0.037340000000000     -6.441670000000000      2.353600000000000
C       1.002430000000000     -5.024450000000000      1.057790000000000
H      -0.893570000000000     -4.253850000000000      5.272400000000000
H       0.055430000000000     -4.763780000000000      0.538300000000000
H       1.651390000000000     -4.125620000000000      1.112750000000000
H       1.523210000000000     -5.810690000000000      0.472060000000000
C       4.276530000000000     -6.577430000000000      3.350550000000000
C       4.130330000000000     -5.479380000000000      4.164870000000000
C       3.738530000000000     -5.934640000000000      5.411590000000000
C       3.627440000000000     -7.269550000000000      5.348380000000000
N       3.985580000000000     -7.745440000000000      4.076680000000000
C       3.177240000000000     -8.179560000000000      6.464110000000000
N       1.740880000000000     -8.020830000000000      6.745820000000000
C       0.805190000000000     -9.035430000000000      6.199520000000000
H       4.277960000000000     -4.447840000000000      3.866410000000000
H       4.557560000000000     -6.560670000000000      2.309130000000000
H       3.540370000000000     -5.313360000000000      6.268120000000000
H       3.754250000000000     -7.936640000000000      7.381540000000000
H       3.424870000000000     -9.217750000000001      6.188880000000000
C       1.097170000000000    -10.425290000000000      6.798170000000000
C      -0.621230000000000     -8.628330000000000      6.619320000000000
C       0.852380000000000     -9.095219999999999      4.657720000000000
H       1.109260000000000    -10.367150000000001      7.907240000000000
H       0.314580000000000    -11.151560000000000      6.489770000000000
H       2.063800000000000    -10.836660000000000      6.450620000000000
H      -0.897860000000000     -7.651390000000000      6.172650000000000
H      -1.371520000000000     -9.375420000000000      6.277770000000000
H      -0.695480000000000     -8.538570000000000      7.724480000000000
H       0.536160000000000     -8.128069999999999      4.212370000000000
H       1.869340000000000     -9.335760000000001      4.293800000000000
H       0.166830000000000     -9.885030000000000      4.279030000000000
