100

Na     -0.255650000000000     -0.274160000000000      0.006840000000000
C       0.313490000000000      0.254560000000000      3.045970000000000
C      -1.391620000000000     -1.356570000000000      2.879770000000000
O      -0.676510000000000     -0.331240000000000      2.225350000000000
C       1.644910000000000     -0.481770000000000      2.925280000000000
C      -2.627910000000000     -0.784510000000000      3.561630000000000
H       0.466440000000000      1.294110000000000      2.689580000000000
H      -0.004800000000000      0.335720000000000      4.107460000000000
H      -1.721850000000000     -2.084210000000000      2.106670000000000
H      -0.765020000000000     -1.931880000000000      3.596690000000000
H      -3.266110000000000     -0.261480000000000      2.817530000000000
H      -3.212620000000000     -1.606630000000000      4.023290000000000
H      -2.332780000000000     -0.065060000000000      4.352530000000000
H       1.976670000000000     -0.512180000000000      1.866860000000000
H       2.414110000000000      0.053080000000000      3.521300000000000
H       1.557160000000000     -1.518860000000000      3.307690000000000
C      -0.968150000000000     -0.648020000000000     -3.082770000000000
C      -2.930060000000000     -0.492780000000000     -1.811660000000000
O      -1.543100000000000     -0.739440000000000     -1.797530000000000
C      -0.592660000000000      0.791340000000000     -3.430420000000000
C      -3.422290000000000     -0.459460000000000     -0.367870000000000
H      -0.028740000000000     -1.240000000000000     -3.059360000000000
H      -1.606490000000000     -1.108230000000000     -3.868440000000000
H      -3.166760000000000      0.490920000000000     -2.270580000000000
H      -3.462240000000000     -1.308990000000000     -2.345760000000000
H      -2.908460000000000      0.347650000000000      0.197520000000000
H      -4.516030000000000     -0.273740000000000     -0.338140000000000
H      -3.209090000000000     -1.429350000000000      0.129550000000000
H       0.060210000000000      1.219910000000000     -2.642360000000000
H      -0.041040000000000      0.806270000000000     -4.393690000000000
H      -1.496860000000000      1.423540000000000     -3.534900000000000
C       1.479670000000000     -2.763470000000000     -0.876810000000000
C       2.930910000000000     -0.918020000000000     -0.992140000000000
O       1.606880000000000     -1.359210000000000     -0.779650000000000
C       1.653920000000000     -3.420790000000000      0.488470000000000
C       3.155510000000000     -0.587890000000000     -2.463170000000000
H       0.451610000000000     -2.983350000000000     -1.236420000000000
H       2.172620000000000     -3.207940000000000     -1.625460000000000
H       3.073500000000000      0.010170000000000     -0.400630000000000
H       3.692500000000000     -1.639020000000000     -0.620240000000000
H       2.418570000000000      0.169920000000000     -2.803620000000000
H       4.177790000000000     -0.177670000000000     -2.599100000000000
H       3.047990000000000     -1.500090000000000     -3.084910000000000
H       0.912000000000000     -3.013790000000000      1.208200000000000
H       1.494410000000000     -4.515670000000000      0.394620000000000
H       2.676500000000000     -3.241170000000000      0.879280000000000
C       1.425420000000000      2.703050000000000     -0.388990000000000
C      -0.753560000000000      2.830790000000000      0.481620000000000
O       0.282010000000000      1.983920000000000      0.024060000000000
C       2.396070000000000      2.892140000000000      0.771850000000000
C      -1.680870000000000      3.223100000000000     -0.662410000000000
H       1.932880000000000      2.101330000000000     -1.171620000000000
H       1.174980000000000      3.677240000000000     -0.864060000000000
H      -1.350070000000000      2.261480000000000      1.226420000000000
H      -0.371260000000000      3.730720000000000      1.012410000000000
H      -2.100550000000000      2.317020000000000     -1.141540000000000
H      -2.517650000000000      3.837130000000000     -0.268340000000000
H      -1.131940000000000      3.807490000000000     -1.426650000000000
H       2.676800000000000      1.908410000000000      1.203710000000000
H       3.315060000000000      3.396200000000000      0.406540000000000
H       1.936760000000000      3.516160000000000      1.565290000000000
Mg      3.887260000000000      7.816990000000000     -2.860760000000000
H       4.887000000000000      9.691800000000001     -4.997890000000000
C       3.415860000000000      8.502620000000000     -6.128140000000000
C       4.552100000000000      8.642320000000000     -5.125120000000000
C       2.113900000000000      9.194940000000001     -5.689170000000000
H       3.757900000000000      8.906160000000000     -7.102950000000000
H       3.193650000000000      7.420200000000000     -6.249420000000000
H       1.365040000000000      9.046090000000000     -6.497460000000000
H       1.718140000000000      8.721810000000000     -4.765310000000000
C       2.269600000000000     10.694200000000000     -5.442460000000000
H       5.412230000000000      7.992370000000000     -5.385860000000000
H       2.933530000000000     10.879790000000000     -4.572560000000000
H       2.683940000000000     11.194030000000000     -6.342360000000000
H       1.276570000000000     11.135400000000001     -5.211430000000000
C       0.882990000000000      6.800690000000000     -2.676590000000000
C       0.054370000000000      6.593900000000000     -1.585460000000000
C       0.784120000000000      6.932150000000000     -0.456860000000000
C       2.015830000000000      7.347390000000000     -0.904930000000000
N       2.066560000000000      7.257250000000000     -2.242830000000000
C       3.192320000000000      7.822830000000000     -0.076410000000000
N       4.219720000000000      8.422359999999999     -0.952100000000000
C       5.451980000000000      8.997080000000000     -0.381530000000000
H      -0.963440000000000      6.233270000000000     -1.607020000000000
H       0.631070000000000      6.623270000000000     -3.715660000000000
H       0.454060000000000      6.892090000000000      0.572350000000000
H       3.596850000000000      6.941290000000000      0.462690000000000
H       2.831560000000000      8.583019999999999      0.640070000000000
C       6.200430000000000      7.961890000000000      0.477950000000000
C       6.371910000000000      9.446370000000000     -1.532330000000000
C       5.093980000000000     10.232260000000000      0.467430000000000
H       6.456450000000000      7.067010000000000     -0.128670000000000
H       7.140520000000000      8.398220000000000      0.879830000000000
H       5.585250000000000      7.642990000000000      1.344170000000000
H       5.859650000000000     10.188680000000000     -2.181680000000000
H       7.296700000000000      9.918720000000000     -1.130600000000000
H       6.671310000000000      8.580500000000001     -2.160750000000000
H       4.566040000000000     10.985790000000000     -0.157660000000000
H       4.434970000000000      9.961620000000000      1.316630000000000
H       6.007270000000000     10.700559999999999      0.890850000000000
