100

Na     -0.308730000000000      0.009060000000000      0.199760000000000
C      -1.023130000000000     -2.288830000000000     -1.811800000000000
C      -2.772270000000000     -2.098400000000000     -0.251080000000000
O      -1.422510000000000     -1.809550000000000     -0.543890000000000
C      -1.275900000000000     -1.253720000000000     -2.904780000000000
C      -2.880420000000000     -3.431670000000000      0.478840000000000
H       0.069740000000000     -2.474760000000000     -1.766190000000000
H      -1.491760000000000     -3.263460000000000     -2.066870000000000
H      -3.150380000000000     -1.297710000000000      0.421360000000000
H      -3.424580000000000     -2.076740000000000     -1.152050000000000
H      -2.264740000000000     -3.412210000000000      1.403630000000000
H      -3.938450000000000     -3.620330000000000      0.754430000000000
H      -2.526190000000000     -4.256620000000000     -0.172380000000000
H      -0.761190000000000     -0.300780000000000     -2.663380000000000
H      -0.878310000000000     -1.635130000000000     -3.868900000000000
H      -2.361570000000000     -1.060190000000000     -3.020310000000000
C       0.527950000000000      2.203410000000000      2.361320000000000
C      -0.377710000000000      0.322240000000000      3.425060000000000
O      -0.251030000000000      1.035780000000000      2.216900000000000
C       2.019010000000000      1.907730000000000      2.210270000000000
C      -1.096710000000000     -0.990900000000000      3.129570000000000
H       0.240000000000000      2.888260000000000      1.535720000000000
H       0.309690000000000      2.746660000000000      3.306690000000000
H       0.613830000000000      0.072530000000000      3.859450000000000
H      -0.986420000000000      0.900450000000000      4.152990000000000
H      -0.514040000000000     -1.596130000000000      2.402020000000000
H      -1.222190000000000     -1.579880000000000      4.061800000000000
H      -2.098770000000000     -0.786740000000000      2.696150000000000
H       2.212470000000000      1.384860000000000      1.251040000000000
H       2.586640000000000      2.861790000000000      2.213830000000000
H       2.385820000000000      1.278970000000000      3.045870000000000
C      -1.646880000000000      2.666980000000000     -0.860990000000000
C       0.364110000000000      2.459240000000000     -2.060200000000000
O      -0.441020000000000      1.947130000000000     -1.019850000000000
C      -2.763840000000000      2.047400000000000     -1.694680000000000
C       1.343050000000000      3.494900000000000     -1.519310000000000
H      -1.938630000000000      2.601180000000000      0.209120000000000
H      -1.534310000000000      3.750800000000000     -1.086490000000000
H       0.947570000000000      1.613270000000000     -2.479260000000000
H      -0.230910000000000      2.870290000000000     -2.905830000000000
H       1.962580000000000      3.052540000000000     -0.710760000000000
H       2.012770000000000      3.834290000000000     -2.336700000000000
H       0.795350000000000      4.370800000000000     -1.115540000000000
H      -2.908740000000000      0.982800000000000     -1.412250000000000
H      -3.711210000000000      2.596250000000000     -1.509530000000000
H      -2.521890000000000      2.107450000000000     -2.775650000000000
C       2.857880000000000     -0.454660000000000     -1.058310000000000
C       2.048360000000000     -2.115510000000000      0.394520000000000
O       1.771050000000000     -0.901000000000000     -0.274300000000000
C       2.761970000000000     -0.999140000000000     -2.479640000000000
C       2.655910000000000     -1.854510000000000      1.767760000000000
H       2.802400000000000      0.652940000000000     -1.106060000000000
H       3.844760000000000     -0.693370000000000     -0.603980000000000
H       1.083780000000000     -2.647200000000000      0.541530000000000
H       2.690950000000000     -2.799310000000000     -0.202980000000000
H       1.976270000000000     -1.221980000000000      2.371920000000000
H       2.804380000000000     -2.818050000000000      2.295390000000000
H       3.635240000000000     -1.343640000000000      1.673080000000000
H       1.793580000000000     -0.709910000000000     -2.939160000000000
H       3.586370000000000     -0.578730000000000     -3.092670000000000
H       2.844490000000000     -2.105100000000000     -2.478900000000000
Mg     -1.541380000000000     -6.326320000000000      5.986540000000000
H      -1.005490000000000     -6.004500000000000      8.964340000000000
C      -1.479390000000000     -8.152640000000000      8.934229999999999
C      -1.672980000000000     -6.726450000000000      8.453900000000001
C      -0.036270000000000     -8.658239999999999      8.787350000000000
H      -1.762150000000000     -8.185969999999999     10.006380000000000
H      -2.163050000000000     -8.824090000000000      8.371800000000000
H       0.661060000000000     -8.008540000000000      9.359940000000000
H      -0.007000000000000     -9.676119999999999      9.228310000000000
C       0.446750000000000     -8.764889999999999      7.337810000000000
H      -2.736960000000000     -6.417590000000000      8.553550000000000
H       0.582780000000000     -7.761720000000000      6.885910000000000
H       1.429140000000000     -9.286250000000001      7.322330000000000
H      -0.266680000000000     -9.354780000000000      6.723730000000000
C       1.300250000000000     -5.306180000000000      4.988690000000000
C       1.890250000000000     -5.340870000000000      3.737270000000000
C       0.989840000000000     -5.951240000000000      2.877090000000000
C      -0.103820000000000     -6.278630000000000      3.647180000000000
N       0.085400000000000     -5.882920000000000      4.906790000000000
C      -1.378740000000000     -6.966560000000000      3.191340000000000
N      -2.173240000000000     -7.375590000000000      4.367800000000000
C      -3.425140000000000     -8.137180000000001      4.199980000000000
H       2.868510000000000     -4.959910000000000      3.475590000000000
H       1.725210000000000     -4.888230000000000      5.890500000000000
H       1.118230000000000     -6.145270000000000      1.823260000000000
H      -1.943560000000000     -6.246160000000000      2.564980000000000
H      -1.102990000000000     -7.859180000000000      2.603500000000000
C      -3.106080000000000     -9.527469999999999      3.616160000000000
C      -4.080340000000000     -8.328870000000000      5.580100000000000
C      -4.406790000000000     -7.387550000000000      3.281980000000000
H      -2.409000000000000    -10.074650000000000      4.288580000000000
H      -4.031610000000000    -10.129730000000000      3.499970000000000
H      -2.634900000000000     -9.449389999999999      2.616120000000000
H      -4.343260000000000     -7.349660000000000      6.034020000000000
H      -5.012240000000000     -8.931350000000000      5.489610000000000
H      -3.393130000000000     -8.862040000000000      6.270060000000000
H      -4.635110000000000     -6.382960000000000      3.698020000000000
H      -3.984480000000000     -7.264850000000000      2.263450000000000
H      -5.357330000000000     -7.955380000000000      3.184160000000000
