100

Na      0.144600000000000     -0.275060000000000      0.199850000000000
C       2.491850000000000      0.254810000000000     -1.812720000000000
C       3.200390000000000     -1.356410000000000     -0.252970000000000
O       2.276170000000000     -0.331000000000000     -0.545050000000000
C       1.721620000000000     -0.481570000000000     -2.905400000000000
C       4.409050000000000     -0.784420000000000      0.476790000000000
H       2.106780000000000      1.294390000000000     -1.766980000000000
H       3.570270000000000      0.335940000000000     -2.067820000000000
H       2.695950000000000     -2.084050000000000      0.419550000000000
H       3.507940000000000     -1.931730000000000     -1.154080000000000
H       4.083740000000000     -0.261390000000000      1.401540000000000
H       5.101190000000000     -1.606570000000000      0.752320000000000
H       4.946440000000000     -0.064970000000000     -0.174240000000000
H       0.639120000000000     -0.512050000000000     -2.663490000000000
H       1.853150000000000      0.053240000000000     -3.869570000000000
H       2.096660000000000     -1.518680000000000     -3.020590000000000
C      -2.175030000000000     -0.648190000000000      2.361670000000000
C      -0.093250000000000     -0.492680000000000      3.425100000000000
O      -0.774500000000000     -0.739520000000000      2.216950000000000
C      -2.663870000000000      0.791130000000000      2.210340000000000
C       1.403190000000000     -0.459340000000000      3.129470000000000
H      -2.624450000000000     -1.240140000000000      1.536380000000000
H      -2.536240000000000     -1.108390000000000      3.307320000000000
H      -0.372290000000000      0.491120000000000      3.859370000000000
H      -0.289680000000000     -1.308850000000000      4.153100000000000
H       1.635810000000000      0.347850000000000      2.401820000000000
H       1.975820000000000     -0.273640000000000      4.061810000000000
H       1.727390000000000     -1.429240000000000      2.696130000000000
H      -2.307820000000000      1.219670000000000      1.250900000000000
H      -3.773900000000000      0.806040000000000      2.214250000000000
H      -2.302270000000000      1.423320000000000      3.045640000000000
C      -1.488540000000000     -2.763510000000000     -0.861250000000000
C      -2.314050000000000     -0.918110000000000     -2.060430000000000
O      -1.468020000000000     -1.359270000000000     -1.020020000000000
C      -0.393300000000000     -3.420810000000000     -1.694800000000000
C      -3.700300000000000     -0.588010000000000     -1.519410000000000
H      -1.285940000000000     -2.983380000000000      0.208890000000000
H      -2.483370000000000     -3.208000000000000     -1.087030000000000
H      -1.873090000000000      0.010080000000000     -2.479670000000000
H      -2.372750000000000     -1.639110000000000     -2.905920000000000
H      -3.626660000000000      0.169790000000000     -0.710970000000000
H      -4.329170000000000     -0.177790000000000     -2.336760000000000
H      -4.184970000000000     -1.500200000000000     -1.115410000000000
H       0.600960000000000     -3.013790000000000     -1.412140000000000
H      -0.394810000000000     -4.515700000000000     -1.509730000000000
H      -0.566140000000000     -3.241190000000000     -2.775780000000000
C      -1.037700000000000      2.702140000000000     -1.057830000000000
C       0.805510000000000      2.828380000000000      0.394330000000000
O      -0.109930000000000      1.982440000000000     -0.272760000000000
C      -0.516750000000000      2.890780000000000     -2.478830000000000
C       0.278130000000000      3.228540000000000      1.767380000000000
H      -1.969590000000000      2.100960000000000     -1.106600000000000
H      -1.323360000000000      3.676700000000000     -0.603710000000000
H       1.746990000000000      2.257180000000000      0.541120000000000
H       1.078720000000000      3.722460000000000     -0.205730000000000
H       0.067140000000000      2.324080000000000      2.371590000000000
H       1.041940000000000      3.836780000000000      2.295280000000000
H      -0.652670000000000      3.823500000000000      1.672120000000000
H      -0.283390000000000      1.907100000000000     -2.937900000000000
H      -1.292670000000000      3.394310000000000     -3.092480000000000
H       0.399910000000000      3.515230000000000     -2.478030000000000
Mg      2.495880000000000      8.705980000000000     -1.237240000000000
H       1.253070000000000      6.103590000000000     -0.400460000000000
C       0.981550000000000      7.301650000000000      1.427970000000000
C       1.805010000000000      6.815990000000000      0.244250000000000
C      -0.256170000000000      8.121520000000000      1.025280000000000
H       0.680720000000000      6.421310000000000      2.031100000000000
H       1.627880000000000      7.956560000000000      2.051660000000000
H      -0.787810000000000      8.407870000000001      1.958900000000000
H       0.051150000000000      9.055070000000001      0.507390000000000
C      -1.229240000000000      7.360660000000000      0.126630000000000
H       2.771440000000000      6.377990000000000      0.567020000000000
H      -0.765390000000000      7.146830000000000     -0.858760000000000
H      -1.539080000000000      6.409890000000000      0.607800000000000
H      -2.130900000000000      7.984790000000000     -0.051580000000000
C       1.421110000000000     11.547100000000000     -0.307040000000000
C       1.296260000000000     12.745320000000000     -0.992110000000000
C       1.739820000000000     12.516310000000001     -2.285330000000000
C       2.100500000000000     11.190700000000000     -2.340040000000000
N       1.910850000000000     10.618589999999999     -1.141140000000000
C       2.659490000000000     10.429819999999999     -3.525520000000000
N       2.663700000000000      8.980499999999999     -3.241140000000000
C       3.127130000000000      8.016330000000000     -4.255790000000000
H       0.930480000000000     13.681480000000001     -0.595130000000000
H       1.173600000000000     11.375130000000000      0.734010000000000
H       1.786890000000000     13.229290000000001     -3.097370000000000
H       3.690160000000000     10.801119999999999     -3.702750000000000
H       2.019740000000000     10.630500000000000     -4.403920000000000
C       4.557530000000000      8.345290000000000     -4.721370000000000
C       3.115920000000000      6.603400000000000     -3.642360000000000
C       2.161210000000000      8.035130000000001     -5.456160000000000
H       5.257430000000000      8.338210000000000     -3.858550000000000
H       4.905230000000000      7.596380000000000     -5.465590000000000
H       4.599720000000000      9.341310000000000     -5.207970000000000
H       2.098470000000000      6.334980000000000     -3.284600000000000
H       3.426910000000000      5.847670000000000     -4.398520000000000
H       3.816380000000000      6.539990000000000     -2.782320000000000
H       1.130700000000000      7.783910000000000     -5.121270000000000
H       2.136470000000000      9.032539999999999     -5.939210000000000
H       2.472650000000000      7.299590000000000     -6.227200000000000
