55

Na      0.913490000000000      0.606500000000000     -1.824400000000000
C       0.094550000000000     -1.204900000000000      0.969620000000000
C      -1.064000000000000      0.802180000000000      0.969890000000000
O      -0.140110000000000     -0.002320000000000      0.273630000000000
C       1.099870000000000     -2.027710000000000      0.172890000000000
C      -1.275130000000000      2.084520000000000      0.173210000000000
H       0.532680000000000     -1.004260000000000      1.973610000000000
H      -0.841980000000000     -1.800080000000000      1.062590000000000
H      -2.047400000000000      0.288040000000000      1.062880000000000
H      -0.671360000000000      1.081230000000000      1.974000000000000
H      -1.667460000000000      1.843910000000000     -0.838330000000000
H      -2.000740000000000      2.745990000000000      0.691140000000000
H      -0.311400000000000      2.626730000000000      0.061950000000000
H       2.049850000000000     -1.462510000000000      0.059300000000000
H       1.314430000000000     -2.983630000000000      0.693350000000000
H       0.693800000000000     -2.250680000000000     -0.837310000000000
Mg     -6.717700000000000     -5.881270000000000      0.556470000000000
H      -4.526940000000000     -4.261370000000000      1.802880000000000
C      -3.355790000000000     -5.443910000000000      0.375630000000000
C      -4.460240000000000     -5.293280000000000      1.401980000000000
C      -2.011870000000000     -5.183500000000000      1.043830000000000
H      -3.384810000000000     -6.474000000000000     -0.042350000000000
H      -3.528070000000000     -4.720630000000000     -0.451640000000000
H      -2.006780000000000     -4.154960000000000      1.465830000000000
H      -1.868550000000000     -5.913500000000000      1.870410000000000
C      -0.867550000000000     -5.322900000000000      0.052550000000000
H      -4.383080000000000     -6.047950000000000      2.212490000000000
H      -0.847200000000000     -6.350330000000000     -0.368780000000000
H      -0.982100000000000     -4.587150000000000     -0.771650000000000
H       0.089740000000000     -5.132060000000000      0.578510000000000
C      -9.124840000000001     -4.530340000000000      2.119850000000000
C     -10.476120000000000     -4.450080000000000      1.822990000000000
C     -10.661300000000001     -5.102390000000000      0.613890000000000
C      -9.419890000000001     -5.541560000000000      0.218830000000000
N      -8.503370000000000     -5.195280000000000      1.134720000000000
C      -9.070810000000000     -6.320870000000000     -1.034260000000000
N      -7.605250000000000     -6.428180000000000     -1.179750000000000
C      -7.008900000000000     -7.108200000000000     -2.343850000000000
H     -11.242030000000000     -3.975690000000000      2.419890000000000
H      -8.636509999999999     -4.131370000000000      3.001190000000000
H     -11.590570000000000     -5.236930000000000      0.077550000000000
H      -9.489680000000000     -5.784760000000000     -1.905040000000000
H      -9.528330000000000     -7.326660000000000     -0.938250000000000
C      -7.331910000000000     -6.315290000000000     -3.624380000000000
C      -5.479630000000000     -7.152670000000000     -2.170940000000000
C      -7.535380000000000     -8.549530000000001     -2.462280000000000
H      -6.934940000000000     -5.279340000000000     -3.543890000000000
H      -6.878350000000000     -6.800420000000000     -4.514100000000000
H      -8.425010000000000     -6.257000000000000     -3.797850000000000
H      -5.201450000000000     -7.731210000000000     -1.264380000000000
H      -5.001110000000000     -7.638450000000000     -3.051030000000000
H      -5.063300000000000     -6.127010000000000     -2.077180000000000
H      -7.311320000000000     -9.119030000000000     -1.534580000000000
H      -8.631399999999999     -8.560470000000000     -2.631910000000000
H      -7.058680000000000     -9.068700000000000     -3.321260000000000
