70

Na     -0.123930000000000      1.982380000000000      0.915810000000000
C      -0.224260000000000     -1.430480000000000      0.517100000000000
C       0.354460000000000     -0.429610000000000     -1.489980000000000
O       0.019160000000000     -0.207840000000000     -0.139330000000000
C      -0.580640000000000     -1.130880000000000      1.968230000000000
C       0.607060000000000      0.922810000000000     -2.145500000000000
H      -1.083900000000000     -1.966160000000000      0.054010000000000
H       0.686250000000000     -2.070900000000000      0.512610000000000
H       1.286140000000000     -1.033900000000000     -1.575010000000000
H      -0.483330000000000     -0.924420000000000     -2.031730000000000
H       1.440080000000000      1.446370000000000     -1.628620000000000
H       0.874840000000000      0.789500000000000     -3.214460000000000
H      -0.305390000000000      1.553940000000000     -2.079390000000000
H      -1.487300000000000     -0.489800000000000      2.013370000000000
H      -0.780190000000000     -2.073950000000000      2.518750000000000
H       0.258760000000000     -0.596800000000000      2.463430000000000
Mg      3.274920000000000     -6.102680000000000     -4.826150000000000
C       1.939820000000000     -3.127020000000000     -5.312920000000000
C       2.627100000000000     -4.073420000000000     -7.401540000000000
O       2.702020000000000     -4.109470000000000     -5.992560000000000
C       0.483210000000000     -2.997630000000000     -5.763860000000000
C       3.289100000000000     -2.835610000000000     -7.986920000000000
H       1.906060000000000     -3.449040000000000     -4.253580000000000
H       2.457880000000000     -2.146920000000000     -5.325100000000000
H       3.185690000000000     -4.954080000000000     -7.772490000000000
H       1.593910000000000     -4.221480000000000     -7.772810000000000
H       3.309420000000000     -2.924680000000000     -9.092840000000001
H       4.329070000000000     -2.745810000000000     -7.610410000000000
H       2.717430000000000     -1.928730000000000     -7.709110000000000
H      -0.015380000000000     -3.981150000000000     -5.758840000000000
H       0.422200000000000     -2.553550000000000     -6.777710000000000
H      -0.062770000000000     -2.337940000000000     -5.060070000000000
H       5.837110000000000     -5.360080000000000     -4.861770000000000
C       5.869500000000000     -7.287940000000000     -5.907120000000000
C       5.382250000000000     -6.367280000000000     -4.775280000000000
C       5.478590000000000     -6.846490000000000     -7.331620000000000
H       6.974630000000000     -7.366150000000000     -5.842290000000000
H       5.435070000000000     -8.297900000000000     -5.746600000000000
H       5.890320000000000     -7.588980000000000     -8.052080000000000
H       4.375280000000000     -6.859300000000000     -7.439040000000000
C       6.018220000000000     -5.470190000000000     -7.720400000000000
H       5.640720000000000     -6.803320000000000     -3.791230000000000
H       5.597110000000000     -4.687210000000000     -7.061010000000000
H       7.125540000000000     -5.450940000000000     -7.652090000000000
H       5.722860000000000     -5.234660000000000     -8.766570000000000
C       0.605170000000000     -6.921210000000000     -7.604960000000000
C       1.560630000000000     -7.822850000000000     -7.199840000000000
C       1.593380000000000     -7.803440000000000     -5.815980000000000
C       0.701930000000000     -6.896550000000000     -5.394790000000000
N       0.018580000000000     -6.320670000000000     -6.479050000000000
C       0.475120000000000     -6.493940000000000     -3.959560000000000
N       1.724830000000000     -5.954590000000000     -3.412330000000000
C       1.795390000000000     -5.627850000000000     -1.966720000000000
H       2.184470000000000     -8.416490000000000     -7.856230000000000
H       0.345440000000000     -6.686940000000000     -8.626480000000001
H       2.260710000000000     -8.378100000000000     -5.188630000000000
H       0.130220000000000     -7.377540000000000     -3.391390000000000
H      -0.308550000000000     -5.706750000000000     -3.940020000000000
C       1.697940000000000     -6.907910000000000     -1.113640000000000
C       3.142290000000000     -4.944590000000000     -1.680220000000000
C       0.659690000000000     -4.656190000000000     -1.564590000000000
H       2.522100000000000     -7.607110000000000     -1.366120000000000
H       1.761000000000000     -6.660260000000000     -0.031000000000000
H       0.730850000000000     -7.427420000000000     -1.267960000000000
H       3.234140000000000     -3.996330000000000     -2.250600000000000
H       3.238750000000000     -4.705920000000000     -0.596880000000000
H       3.983420000000000     -5.610400000000000     -1.966020000000000
H       0.709050000000000     -3.720560000000000     -2.161450000000000
H      -0.340070000000000     -5.114420000000000     -1.712850000000000
H       0.738380000000000     -4.382820000000000     -0.489760000000000
