100

Na     -0.074860000000000      0.217420000000000      0.298400000000000
C      -0.132720000000000     -2.653950000000000      1.595430000000000
C      -0.422990000000000     -1.055200000000000      3.293160000000000
O       0.023990000000000     -1.303050000000000      1.977920000000000
C      -1.502730000000000     -2.895760000000000      0.968850000000000
C       0.730980000000000     -1.207350000000000      4.274670000000000
H       0.637940000000000     -2.872680000000000      0.827520000000000
H       0.056240000000000     -3.360410000000000      2.432700000000000
H      -0.785940000000000     -0.005200000000000      3.335000000000000
H      -1.287330000000000     -1.692020000000000      3.586180000000000
H       1.561000000000000     -0.524740000000000      3.992600000000000
H       0.386220000000000     -0.953880000000000      5.298210000000000
H       1.104700000000000     -2.251770000000000      4.267980000000000
H      -1.656910000000000     -2.215880000000000      0.105570000000000
H      -1.561420000000000     -3.944610000000000      0.609730000000000
H      -2.309720000000000     -2.727860000000000      1.710780000000000
C       0.205350000000000      3.131070000000000     -1.023330000000000
C       1.412370000000000      3.022890000000000      0.979160000000000
O       0.398030000000000      2.441640000000000      0.192690000000000
C       1.162180000000000      2.635890000000000     -2.105940000000000
C       1.657870000000000      2.121660000000000      2.184680000000000
H      -0.827940000000000      2.906860000000000     -1.363230000000000
H       0.260140000000000      4.235270000000000     -0.900720000000000
H       2.369240000000000      3.103000000000000      0.420080000000000
H       1.091660000000000      4.021470000000000      1.346540000000000
H       1.979500000000000      1.111100000000000      1.852440000000000
H       2.450470000000000      2.553430000000000      2.830490000000000
H       0.725450000000000      2.018560000000000      2.779280000000000
H       1.072590000000000      1.536280000000000     -2.223370000000000
H       0.907190000000000      3.118200000000000     -3.072660000000000
H       2.211650000000000      2.888630000000000     -1.854610000000000
C      -3.065710000000000      1.060000000000000     -0.322890000000000
C      -2.423050000000000     -0.287430000000000     -2.135850000000000
O      -2.009670000000000      0.363810000000000     -0.953360000000000
C      -3.758660000000000      0.172120000000000      0.704330000000000
C      -2.208080000000000      0.617040000000000     -3.342820000000000
H      -2.625410000000000      1.929360000000000      0.210600000000000
H      -3.799540000000000      1.479310000000000     -1.047330000000000
H      -1.792480000000000     -1.192390000000000     -2.259250000000000
H      -3.474450000000000     -0.650120000000000     -2.087610000000000
H      -1.144050000000000      0.929290000000000     -3.401100000000000
H      -2.471680000000000      0.067460000000000     -4.270190000000000
H      -2.845570000000000      1.521580000000000     -3.265630000000000
H      -3.024900000000000     -0.186850000000000      1.456910000000000
H      -4.549060000000000      0.753230000000000      1.224280000000000
H      -4.224360000000000     -0.702090000000000      0.206460000000000
C       1.374460000000000     -1.483080000000000     -2.348100000000000
C       2.712820000000000     -1.159150000000000     -0.446130000000000
O       1.443170000000000     -0.962710000000000     -1.036650000000000
C       0.893160000000000     -2.929490000000000     -2.330460000000000
C       3.630790000000000      0.023930000000000     -0.729170000000000
H       0.635010000000000     -0.876110000000000     -2.911060000000000
H       2.335020000000000     -1.388730000000000     -2.901970000000000
H       2.566740000000000     -1.227450000000000      0.653060000000000
H       3.189800000000000     -2.116020000000000     -0.754950000000000
H       3.164840000000000      0.960950000000000     -0.365240000000000
H       4.596990000000000     -0.121490000000000     -0.202430000000000
H       3.824440000000000      0.117230000000000     -1.817070000000000
H      -0.089140000000000     -3.000810000000000     -1.818250000000000
H       0.780390000000000     -3.294200000000000     -3.372680000000000
H       1.623290000000000     -3.575640000000000     -1.801590000000000
Mg     -8.349810000000000     -6.367820000000000      1.850580000000000
H      -7.139120000000000     -9.014920000000000      0.951530000000000
C      -7.044930000000000     -7.881440000000000     -0.918470000000000
C      -7.745200000000000     -8.298190000000000      0.360370000000000
C      -6.850280000000000     -9.102309999999999     -1.811030000000000
H      -7.663620000000000     -7.118990000000000     -1.440200000000000
H      -6.063130000000000     -7.426400000000000     -0.661510000000000
H      -6.240240000000000     -9.858110000000000     -1.269870000000000
H      -7.842800000000000     -9.543620000000001     -2.049430000000000
C      -6.147010000000000     -8.731360000000000     -3.107640000000000
H      -8.762570000000000     -8.695110000000000      0.161050000000000
H      -6.750120000000000     -7.989470000000000     -3.672980000000000
H      -5.144580000000000     -8.304570000000000     -2.891620000000000
H      -6.024830000000000     -9.644019999999999     -3.726850000000000
C      -8.682820000000000     -7.133520000000000      4.911170000000000
C      -8.798100000000000     -6.347510000000000      6.046150000000000
C      -8.727430000000000     -5.026450000000000      5.630750000000000
C      -8.558000000000000     -5.061940000000000      4.265230000000000
N      -8.542109999999999     -6.333680000000000      3.842470000000000
C      -8.420660000000000     -3.884500000000000      3.317300000000000
N      -8.071180000000000     -4.361400000000000      1.962730000000000
C      -7.852420000000000     -3.413920000000000      0.854940000000000
H      -8.924350000000000     -6.695270000000000      7.062150000000000
H      -8.706220000000000     -8.215610000000000      4.874040000000000
H      -8.784179999999999     -4.142750000000000      6.251080000000000
H      -7.616520000000000     -3.225690000000000      3.694650000000000
H      -9.390290000000000     -3.346330000000000      3.307990000000000
C      -6.608930000000000     -2.553580000000000      1.147730000000000
C      -7.599920000000000     -4.209010000000000     -0.439330000000000
C      -9.086349999999999     -2.517000000000000      0.651840000000000
H      -5.714780000000000     -3.202270000000000      1.278880000000000
H      -6.415140000000000     -1.849670000000000      0.311490000000000
H      -6.741630000000000     -1.951720000000000      2.069090000000000
H      -8.480570000000000     -4.835760000000000     -0.695540000000000
H      -7.407620000000000     -3.518740000000000     -1.291300000000000
H      -6.715410000000000     -4.872170000000000     -0.328900000000000
H      -9.984380000000000     -3.138130000000000      0.444930000000000
H      -9.280659999999999     -1.896710000000000      1.550500000000000
H      -8.928530000000000     -1.826200000000000     -0.204210000000000
