70

Na     -1.832200000000000     -0.982660000000000      0.001650000000000
C       0.681090000000000      1.136600000000000      1.004860000000000
C       1.260250000000000      0.134130000000000     -1.000990000000000
O       0.274770000000000      0.235160000000000      0.001000000000000
C      -0.419120000000000      1.206530000000000      2.056810000000000
C       0.767730000000000     -0.847570000000000     -2.056960000000000
H       1.612320000000000      0.783370000000000      1.503040000000000
H       0.823760000000000      2.159200000000000      0.587160000000000
H       1.426080000000000      1.117720000000000     -1.496510000000000
H       2.213960000000000     -0.259800000000000     -0.582080000000000
H      -0.185450000000000     -0.485220000000000     -2.498550000000000
H       1.520720000000000     -0.954550000000000     -2.865490000000000
H       0.590620000000000     -1.842480000000000     -1.596900000000000
H      -0.588170000000000      0.200330000000000      2.497360000000000
H      -0.133940000000000      1.910160000000000      2.866680000000000
H      -1.366350000000000      1.557510000000000      1.593440000000000
Mg      2.155120000000000     -5.195910000000000      4.479030000000000
C       1.930080000000000     -4.627980000000000      7.613410000000000
C       2.197810000000000     -2.601980000000000      6.384520000000000
O       2.570490000000000     -3.953990000000000      6.547280000000000
C       0.406710000000000     -4.676350000000000      7.499980000000000
C       2.756890000000000     -1.724110000000000      7.492300000000000
H       2.280040000000000     -5.674860000000000      7.560840000000000
H       2.271350000000000     -4.260970000000000      8.601590000000000
H       2.651410000000000     -2.265850000000000      5.426510000000000
H       1.104790000000000     -2.465510000000000      6.252580000000000
H       3.846920000000000     -1.908160000000000      7.596720000000000
H       2.587990000000000     -0.657270000000000      7.238590000000000
H       2.245720000000000     -1.947420000000000      8.450120000000000
H       0.102190000000000     -4.966620000000000      6.474930000000000
H       0.010530000000000     -5.426140000000000      8.216390000000001
H      -0.033960000000000     -3.691610000000000      7.751430000000000
H      -0.231270000000000     -5.062720000000000      3.458820000000000
C       0.996760000000000     -3.689650000000000      2.292020000000000
C       0.522820000000000     -4.264830000000000      3.611010000000000
C       1.697220000000000     -4.766880000000000      1.455950000000000
H       0.109030000000000     -3.290560000000000      1.762410000000000
H       1.716570000000000     -2.862800000000000      2.484830000000000
H       2.639150000000000     -5.073260000000000      1.957270000000000
H       1.050060000000000     -5.663800000000000      1.356580000000000
C       2.012290000000000     -4.246480000000000      0.059640000000000
H       0.116450000000000     -3.475300000000000      4.274180000000000
H       1.063090000000000     -3.994550000000000     -0.458670000000000
H       2.655340000000000     -3.342440000000000      0.110490000000000
H       2.536080000000000     -5.031500000000000     -0.525020000000000
C       5.286960000000000     -5.799040000000000      2.352340000000000
C       5.140760000000000     -4.700970000000000      3.166660000000000
C       4.748910000000000     -5.156250000000000      4.413360000000000
C       4.637800000000000     -6.491140000000000      4.350170000000000
N       4.995970000000000     -6.967040000000000      3.078440000000000
C       4.187590000000000     -7.401160000000000      5.465860000000000
N       2.751220000000000     -7.242400000000000      5.747560000000000
C       1.815540000000000     -8.257020000000001      5.201260000000000
H       5.288390000000000     -3.669450000000000      2.868200000000000
H       5.567990000000000     -5.782280000000000      1.310910000000000
H       4.550730000000000     -4.534960000000000      5.269890000000000
H       4.764590000000000     -7.158230000000000      6.383300000000000
H       4.435210000000000     -8.439340000000000      5.190630000000000
C       2.107520000000000     -9.646879999999999      5.799910000000000
C       0.389130000000000     -7.849910000000000      5.621060000000000
C       1.862730000000000     -8.316810000000000      3.659470000000000
H       2.119610000000000     -9.588730000000000      6.908990000000000
H       1.324940000000000    -10.373150000000001      5.491520000000000
H       3.074160000000000    -10.058240000000000      5.452370000000000
H       0.112500000000000     -6.872980000000000      5.174390000000000
H      -0.361160000000000     -8.597009999999999      5.279520000000000
H       0.314870000000000     -7.760150000000000      6.726220000000000
H       1.546510000000000     -7.349670000000000      3.214120000000000
H       2.879690000000000     -8.557340000000000      3.295540000000000
H       1.177190000000000     -9.106619999999999      3.280780000000000
