55

Na      0.000270000000000     -0.974220000000000      1.825760000000000
C      -1.158600000000000      0.638570000000000     -0.969550000000000
C       1.157980000000000      0.641550000000000     -0.966760000000000
O      -0.000480000000000      0.236330000000000     -0.274950000000000
C      -2.374740000000000      0.177380000000000     -0.175070000000000
C       2.374440000000000      0.176590000000000     -0.175090000000000
H      -1.204600000000000      1.747900000000000     -1.056650000000000
H      -1.203630000000000      0.164260000000000     -1.976330000000000
H       1.201820000000000      0.172870000000000     -1.973710000000000
H       1.203910000000000      1.750750000000000     -1.051900000000000
H       2.361010000000000     -0.929810000000000     -0.070370000000000
H       3.309630000000000      0.476490000000000     -0.692560000000000
H       2.363710000000000      0.631540000000000      0.838820000000000
H      -2.362450000000000      0.633560000000000      0.838300000000000
H      -3.310200000000000      0.477440000000000     -0.691880000000000
H      -2.362200000000000     -0.928710000000000     -0.068270000000000
Mg     -0.116590000000000     -5.889300000000000     -3.955110000000000
H      -0.223470000000000     -8.501440000000001     -5.454690000000000
C      -1.665570000000000     -7.292900000000000     -6.601610000000000
C      -1.051390000000000     -7.780680000000000     -5.297210000000000
C      -0.698390000000000     -6.472450000000000     -7.472530000000000
H      -2.038820000000000     -8.173240000000000     -7.163560000000000
H      -2.528400000000000     -6.637580000000000     -6.353040000000000
H      -1.241360000000000     -6.186230000000000     -8.399649999999999
H      -0.403690000000000     -5.539120000000000     -6.947140000000000
C       0.566830000000000     -7.232000000000000     -7.866440000000000
H      -1.815770000000000     -8.214029999999999     -4.620320000000000
H       1.188010000000000     -7.446180000000000     -6.971870000000000
H       0.305420000000000     -8.182259999999999     -8.376320000000000
H       1.171940000000000     -6.607680000000000     -8.557960000000000
C      -0.384400000000000     -3.048190000000000     -5.352070000000000
C       0.273250000000000     -1.850900000000000     -5.119150000000000
C       1.173410000000000     -2.081060000000000     -4.090720000000000
C       1.037890000000000     -3.405410000000000     -3.748830000000000
N       0.093190000000000     -3.976940000000000     -4.510460000000000
C       1.785700000000000     -4.165410000000000     -2.671730000000000
N       1.536770000000000     -5.614720000000000     -2.809890000000000
C       2.183890000000000     -6.578860000000000     -1.901260000000000
H       0.113430000000000     -0.914730000000000     -5.634940000000000
H      -1.162640000000000     -3.219990000000000     -6.086250000000000
H       1.856940000000000     -1.371190000000000     -3.647730000000000
H       1.424260000000000     -3.793210000000000     -1.690580000000000
H       2.866180000000000     -3.964890000000000     -2.787000000000000
C       1.871880000000000     -6.250070000000000     -0.429830000000000
C       1.658090000000000     -7.991600000000000     -2.217590000000000
C       3.706380000000000     -6.560450000000000     -2.137870000000000
H       0.774680000000000     -6.257360000000000     -0.255300000000000
H       2.342500000000000     -6.999240000000000      0.243180000000000
H       2.272130000000000     -5.254060000000000     -0.149990000000000
H       1.857060000000000     -8.259679999999999     -3.277600000000000
H       2.157410000000000     -8.747520000000000     -1.570340000000000
H       0.563020000000000     -8.055030000000000     -2.041130000000000
H       3.931430000000000     -6.811730000000000     -3.197810000000000
H       4.137380000000000     -5.563190000000000     -1.917810000000000
H       4.218300000000000     -7.296320000000000     -1.482890000000000
