55

Na     -0.000320000000000     -0.979590000000000     -1.823010000000000
C      -1.158390000000000      0.635300000000000      0.970900000000000
C       1.158360000000000      0.633440000000000      0.970650000000000
O      -0.000430000000000      0.234120000000000      0.275460000000000
C      -2.375150000000000      0.184430000000000      0.171870000000000
C       2.374160000000000      0.175480000000000      0.173880000000000
H      -1.205900000000000      0.153570000000000      1.973820000000000
H      -1.201890000000000      1.744120000000000      1.065780000000000
H       1.204570000000000      1.742530000000000      1.062670000000000
H       1.204240000000000      0.154680000000000      1.975040000000000
H       2.361470000000000      0.636180000000000     -0.837500000000000
H       3.309620000000000      0.474430000000000      0.691520000000000
H       2.361870000000000     -0.930380000000000      0.063190000000000
H      -2.365340000000000     -0.918670000000000      0.055260000000000
H      -3.310420000000000      0.480870000000000      0.690940000000000
H      -2.361380000000000      0.646840000000000     -0.838320000000000
Mg      2.533740000000000     -4.836570000000000     -0.189900000000000
H       2.792200000000000     -5.844840000000000     -3.052570000000000
C       3.364380000000000     -7.685110000000000     -1.992060000000000
C       3.339150000000000     -6.175960000000000     -2.147820000000000
C       1.966340000000000     -8.320620000000000     -1.956690000000000
H       3.924390000000000     -8.101500000000000     -2.854420000000000
H       3.911090000000000     -7.947700000000000     -1.061110000000000
H       1.410500000000000     -8.083790000000000     -2.890060000000000
H       2.114560000000000     -9.419290000000000     -1.907570000000000
C       1.121620000000000     -7.910270000000000     -0.746850000000000
H       4.371350000000000     -5.761470000000000     -2.138490000000000
H       0.814020000000000     -6.847330000000000     -0.814960000000000
H       0.201590000000000     -8.534739999999999     -0.720670000000000
H       1.678030000000000     -8.075460000000000      0.200330000000000
C      -0.524120000000000     -3.992180000000000     -0.371760000000000
C      -1.427980000000000     -3.616660000000000      0.609320000000000
C      -0.753510000000000     -3.668930000000000      1.818850000000000
C       0.522470000000000     -4.090710000000000      1.529470000000000
N       0.651930000000000     -4.274250000000000      0.206790000000000
C       1.666410000000000     -4.314970000000000      2.496840000000000
N       2.768680000000000     -5.025730000000000      1.818270000000000
C       3.972280000000000     -5.434630000000000      2.565110000000000
H      -2.459850000000000     -3.332170000000000      0.462420000000000
H      -0.719550000000000     -4.050230000000000     -1.436010000000000
H      -1.148160000000000     -3.439040000000000      2.799320000000000
H       2.000950000000000     -3.320060000000000      2.857420000000000
H       1.295780000000000     -4.926780000000000      3.338910000000000
C       3.590810000000000     -6.502410000000000      3.609430000000000
C       4.981750000000000     -6.055550000000000      1.582460000000000
C       4.628690000000000     -4.226300000000000      3.256420000000000
H       3.130850000000000     -7.382050000000000      3.107270000000000
H       4.485400000000000     -6.843580000000000      4.171650000000000
H       2.866710000000000     -6.106380000000000      4.349060000000000
H       5.298360000000000     -5.314310000000000      0.817960000000000
H       5.889330000000000     -6.405660000000000      2.123890000000000
H       4.535510000000000     -6.928280000000000      1.061030000000000
H       4.900830000000000     -3.452790000000000      2.506710000000000
H       3.943800000000000     -3.774880000000000      4.003310000000000
H       5.550040000000000     -4.539510000000000      3.793490000000000
