115

Na     -0.256040000000000     -0.275440000000000      0.007690000000000
C       0.313410000000000      0.256600000000000      3.047980000000000
C      -1.391360000000000     -1.354940000000000      2.880690000000000
O      -0.676370000000000     -0.329100000000000      2.226900000000000
C       1.644690000000000     -0.480050000000000      2.926900000000000
C      -2.627540000000000     -0.783130000000000      3.562920000000000
H       0.466540000000000      1.296160000000000      2.691720000000000
H      -0.005060000000000      0.338060000000000      4.109510000000000
H      -1.721640000000000     -2.082350000000000      2.107220000000000
H      -0.764710000000000     -1.930760000000000      3.597120000000000
H      -3.265820000000000     -0.260230000000000      2.818770000000000
H      -3.212170000000000     -1.605550000000000      4.024170000000000
H      -2.332360000000000     -0.063700000000000      4.353970000000000
H       1.976220000000000     -0.510830000000000      1.868300000000000
H       2.414130000000000      0.054600000000000      3.522690000000000
H       1.556910000000000     -1.517310000000000      3.308940000000000
C      -0.968080000000000     -0.648290000000000     -3.082540000000000
C      -2.930000000000000     -0.492680000000000     -1.811400000000000
O      -1.543070000000000     -0.739470000000000     -1.797280000000000
C      -0.592670000000000      0.790980000000000     -3.430440000000000
C      -3.422220000000000     -0.459350000000000     -0.367600000000000
H      -0.028600000000000     -1.240150000000000     -3.058960000000000
H      -1.606360000000000     -1.108650000000000     -3.868160000000000
H      -3.166610000000000      0.491060000000000     -2.270270000000000
H      -3.462240000000000     -1.308850000000000     -2.345540000000000
H      -2.908400000000000      0.347800000000000      0.197760000000000
H      -4.515960000000000     -0.273680000000000     -0.337830000000000
H      -3.208990000000000     -1.429240000000000      0.129830000000000
H       0.060080000000000      1.219690000000000     -2.642370000000000
H      -0.040940000000000      0.805820000000000     -4.393640000000000
H      -1.496920000000000      1.423070000000000     -3.535120000000000
C       1.479490000000000     -2.763400000000000     -0.876680000000000
C       2.930810000000000     -0.918020000000000     -0.992020000000000
O       1.606770000000000     -1.359160000000000     -0.779490000000000
C       1.653850000000000     -3.420790000000000      0.488570000000000
C       3.155470000000000     -0.587990000000000     -2.463080000000000
H       0.451390000000000     -2.983230000000000     -1.236210000000000
H       2.172350000000000     -3.207860000000000     -1.625420000000000
H       3.073390000000000      0.010170000000000     -0.400550000000000
H       3.692370000000000     -1.638960000000000     -0.620010000000000
H       2.418560000000000      0.169770000000000     -2.803690000000000
H       4.177750000000000     -0.177740000000000     -2.599000000000000
H       3.048020000000000     -1.500220000000000     -3.084780000000000
H       0.911990000000000     -3.013840000000000      1.208410000000000
H       1.494320000000000     -4.515680000000000      0.394650000000000
H       2.676450000000000     -3.241220000000000      0.879310000000000
C       1.425060000000000      2.699420000000000     -0.387490000000000
C      -0.754140000000000      2.829590000000000      0.483430000000000
O       0.280670000000000      1.981810000000000      0.025220000000000
C       2.395750000000000      2.887500000000000      0.773410000000000
C      -1.680590000000000      3.226040000000000     -0.660580000000000
H       1.932150000000000      2.097870000000000     -1.170490000000000
H       1.175190000000000      3.673850000000000     -0.862230000000000
H      -1.351670000000000      2.259450000000000      1.226670000000000
H      -0.371340000000000      3.727640000000000      1.017050000000000
H      -2.098410000000000      2.320760000000000     -1.143680000000000
H      -2.519510000000000      3.835750000000000     -0.264530000000000
H      -1.132900000000000      3.818760000000000     -1.420900000000000
H       2.677120000000000      1.904230000000000      1.205150000000000
H       3.314510000000000      3.392900000000000      0.409220000000000
H       1.934740000000000      3.509360000000000      1.566280000000000
Mg     -0.735440000000000      6.296730000000000      5.804960000000000
C       0.525090000000000      5.940780000000000      9.323630000000000
C      -1.779810000000000      5.991180000000000      9.384350000000000
O      -0.630310000000000      6.549950000000000      8.780670000000001
C       1.744660000000000      6.799240000000000      9.024220000000000
C      -3.031740000000000      6.574410000000000      8.742550000000000
H       0.465500000000000      5.846910000000000     10.430859999999999
H       0.676260000000000      4.936630000000000      8.876379999999999
H      -1.803670000000000      4.888280000000000      9.259800000000000
H      -1.808930000000000      6.235190000000000     10.467290000000000
H      -3.067620000000000      6.330540000000000      7.661600000000000
H      -3.934690000000000      6.150240000000000      9.230589999999999
H      -3.041610000000000      7.677380000000000      8.865190000000000
H       1.618570000000000      7.811370000000000      9.458869999999999
H       2.654070000000000      6.322660000000000      9.445390000000000
H       1.889440000000000      6.908500000000000      7.940300000000000
H      -2.721240000000000      8.674010000000001      6.538560000000000
C      -2.873960000000000      7.915270000000000      4.473600000000000
C      -2.077520000000000      8.378579999999999      5.687490000000000
C      -3.784460000000000      6.726000000000000      4.809580000000000
H      -3.483410000000000      8.772399999999999      4.123230000000000
H      -2.168260000000000      7.614490000000000      3.667130000000000
H      -3.174340000000000      5.842870000000000      5.102630000000000
H      -4.452630000000000      6.992120000000000      5.656120000000000
C      -4.652900000000000      6.353980000000000      3.609850000000000
H      -1.361610000000000      9.182919999999999      5.422110000000000
H      -5.283850000000000      7.220690000000000      3.317490000000000
H      -4.021320000000000      6.055970000000000      2.746080000000000
H      -5.320560000000000      5.506660000000000      3.873770000000000
C      -1.949190000000000      3.644690000000000      7.028570000000000
C      -1.349540000000000      2.443800000000000      7.364560000000000
C      -0.008270000000000      2.559720000000000      7.029960000000000
C       0.156800000000000      3.826380000000000      6.520200000000000
N      -1.018030000000000      4.470990000000000      6.536250000000000
C       1.423180000000000      4.461650000000000      5.974870000000000
N       1.257730000000000      5.925750000000000      5.821070000000000
C       2.194610000000000      6.672550000000000      4.957820000000000
H      -1.835200000000000      1.583930000000000      7.801840000000000
H      -2.996280000000000      3.897710000000000      7.155490000000000
H       0.762490000000000      1.811860000000000      7.153840000000000
H       2.260020000000000      4.277370000000000      6.678230000000000
H       1.630520000000000      3.971620000000000      5.003580000000000
C       1.942350000000000      6.364000000000000      3.471540000000000
C       1.974420000000000      8.182499999999999      5.183540000000000
C       3.649050000000000      6.330160000000000      5.337550000000000
H       0.910520000000000      6.657810000000000      3.181480000000000
H       2.658870000000000      6.929800000000000      2.836400000000000
H       2.079520000000000      5.288480000000000      3.251680000000000
H       2.155840000000000      8.464660000000000      6.241750000000000
H       2.666610000000000      8.781029999999999      4.550600000000000
H       0.934920000000000      8.471190000000000      4.922810000000000
H       3.823410000000000      6.541230000000000      6.415290000000000
H       3.865170000000000      5.257770000000000      5.151790000000000
H       4.367100000000000      6.931600000000000      4.741380000000000
