100

Na     -0.113500000000000      0.367180000000000      0.014260000000000
C       0.064930000000000     -0.403090000000000      3.064610000000000
C      -0.476020000000000      1.877500000000000      2.894910000000000
O       0.060100000000000      0.746460000000000      2.243440000000000
C      -1.238930000000000     -1.183840000000000      2.930180000000000
C       0.636600000000000      2.668520000000000      3.569030000000000
H       0.891840000000000     -1.056020000000000      2.716330000000000
H       0.284130000000000     -0.167920000000000      4.128770000000000
H      -0.948280000000000      2.521400000000000      2.121370000000000
H      -1.282810000000000      1.621710000000000      3.617500000000000
H       1.403990000000000      2.957510000000000      2.819350000000000
H       0.216170000000000      3.586530000000000      4.028630000000000
H       1.117110000000000      2.056550000000000      4.359690000000000
H      -1.419750000000000     -1.452040000000000      1.868750000000000
H      -1.169680000000000     -2.118170000000000      3.525790000000000
H      -2.095140000000000     -0.586190000000000      3.303710000000000
C      -0.072320000000000      1.168620000000000     -3.095350000000000
C       1.037310000000000      2.787670000000000     -1.820210000000000
O       0.129990000000000      1.709760000000000     -1.807960000000000
C       0.984160000000000      0.118990000000000     -3.434360000000000
C       1.314660000000000      3.195210000000000     -0.377040000000000
H      -1.058170000000000      0.657340000000000     -3.081140000000000
H      -0.139350000000000      1.952540000000000     -3.881650000000000
H       2.007470000000000      2.501540000000000     -2.280120000000000
H       0.596080000000000      3.657770000000000     -2.352400000000000
H       1.756280000000000      2.345180000000000      0.186390000000000
H       2.024410000000000      4.047990000000000     -0.349590000000000
H       0.369400000000000      3.497370000000000      0.121740000000000
H       1.015890000000000     -0.661700000000000     -2.646660000000000
H       0.729100000000000     -0.362510000000000     -4.401470000000000
H       1.987550000000000      0.580600000000000     -3.526940000000000
C      -3.142170000000000      0.091740000000000     -0.879440000000000
C      -2.271400000000000     -2.086120000000000     -0.995350000000000
O      -1.988610000000000     -0.719170000000000     -0.784020000000000
C      -3.788580000000000      0.272440000000000      0.489300000000000
C      -2.091160000000000     -2.444430000000000     -2.465160000000000
H      -2.822590000000000      1.090460000000000     -1.246580000000000
H      -3.878800000000000     -0.290730000000000     -1.621230000000000
H      -1.544250000000000     -2.675850000000000     -0.399270000000000
H      -3.280360000000000     -2.382710000000000     -0.630030000000000
H      -1.063890000000000     -2.185570000000000     -2.798060000000000
H      -2.248790000000000     -3.534170000000000     -2.603600000000000
H      -2.822550000000000     -1.891620000000000     -3.089650000000000
H      -3.059540000000000      0.715000000000000      1.200800000000000
H      -4.660760000000000      0.953700000000000      0.400260000000000
H      -4.134350000000000     -0.703320000000000      0.886320000000000
C       1.637060000000000     -2.594060000000000     -0.387740000000000
C       2.837070000000000     -0.772470000000000      0.481420000000000
O       1.585120000000000     -1.243530000000000      0.023100000000000
C       1.309120000000000     -3.524840000000000      0.774220000000000
C       3.639630000000000     -0.165700000000000     -0.663220000000000
H       0.867480000000000     -2.734510000000000     -1.175240000000000
H       2.609120000000000     -2.866940000000000     -0.855710000000000
H       2.643900000000000      0.026350000000000      1.228940000000000
H       3.426200000000000     -1.554870000000000      1.009870000000000
H       3.060740000000000      0.648500000000000     -1.142310000000000
H       4.588030000000000      0.255550000000000     -0.269250000000000
H       3.876900000000000     -0.935300000000000     -1.425550000000000
H       0.315140000000000     -3.272470000000000      1.199270000000000
H       1.287530000000000     -4.574000000000000      0.412590000000000
H       2.075220000000000     -3.436160000000000      1.571420000000000
Mg     -7.625020000000000     -4.635600000000000      3.356610000000000
H      -7.722390000000000     -5.353670000000000      6.315620000000000
C      -7.240360000000000     -3.222380000000000      6.441350000000000
C      -7.091180000000000     -4.593580000000000      5.811270000000000
C      -6.759970000000000     -3.273930000000000      7.887600000000000
H      -6.638130000000000     -2.488500000000000      5.862500000000000
H      -8.309220000000000     -2.918150000000000      6.396720000000000
H      -7.364510000000000     -4.020120000000000      8.447970000000000
H      -5.692750000000000     -3.585860000000000      7.908060000000000
C      -6.894250000000000     -1.917410000000000      8.562290000000001
H      -6.028750000000000     -4.912470000000000      5.768060000000000
H      -6.282350000000000     -1.160260000000000      8.027440000000000
H      -7.957330000000000     -1.595690000000000      8.568239999999999
H      -6.535500000000000     -1.997010000000000      9.609310000000001
C      -8.493610000000000     -7.481700000000000      2.256630000000000
C      -9.054420000000000     -7.866640000000000      1.049720000000000
C      -9.222030000000000     -6.714170000000000      0.297090000000000
C      -8.770970000000000     -5.675580000000000      1.079690000000000
N      -8.326770000000000     -6.149850000000000      2.251890000000000
C      -8.735170000000000     -4.199080000000000      0.729760000000000
N      -8.350370000000000     -3.405380000000000      1.915680000000000
C      -8.267350000000000     -1.934960000000000      1.853530000000000
H      -9.308900000000000     -8.873279999999999      0.747970000000000
H      -8.223080000000000     -8.135230000000000      3.076730000000000
H      -9.632310000000000     -6.639390000000000     -0.700430000000000
H      -9.744949999999999     -3.896250000000000      0.395560000000000
H      -7.999540000000000     -4.065860000000000     -0.089370000000000
C      -9.669110000000000     -1.348380000000000      1.601170000000000
C      -7.754800000000000     -1.406530000000000      3.206020000000000
C      -7.294250000000000     -1.490200000000000      0.747650000000000
H     -10.366390000000001     -1.661750000000000      2.409240000000000
H      -9.634169999999999     -0.238640000000000      1.576500000000000
H     -10.081610000000000     -1.692690000000000      0.631590000000000
H      -6.737460000000000     -1.796630000000000      3.422400000000000
H      -7.703680000000000     -0.294520000000000      3.197550000000000
H      -8.432680000000000     -1.712320000000000      4.031520000000000
H      -6.287230000000000     -1.923110000000000      0.927330000000000
H      -7.648820000000000     -1.816950000000000     -0.251050000000000
H      -7.207180000000000     -0.382490000000000      0.726940000000000
