85

Na     -1.832800000000000     -0.981190000000000      0.000610000000000
C       0.681470000000000      1.138020000000000      1.003640000000000
C       1.261020000000000      0.133930000000000     -1.001900000000000
O       0.274930000000000      0.237100000000000     -0.000570000000000
C      -0.418980000000000      1.208090000000000      2.055630000000000
C       0.766850000000000     -0.847770000000000     -2.057020000000000
H       1.612580000000000      0.784490000000000      1.501890000000000
H       0.824390000000000      2.160510000000000      0.586100000000000
H       1.428580000000000      1.116880000000000     -1.497990000000000
H       2.214080000000000     -0.261300000000000     -0.582440000000000
H      -0.184200000000000     -0.483150000000000     -2.500910000000000
H       1.521450000000000     -0.959900000000000     -2.863690000000000
H       0.581800000000000     -1.839790000000000     -1.593840000000000
H      -0.588460000000000      0.202070000000000      2.496330000000000
H      -0.133870000000000      1.911430000000000      2.865750000000000
H      -1.366310000000000      1.558950000000000      1.592420000000000
Mg      3.960510000000000     -6.455960000000000      0.379030000000000
C       2.788210000000000     -6.387140000000000      3.683540000000000
C       2.974240000000000     -4.229580000000000      2.681510000000000
O       2.917720000000000     -5.631180000000000      2.493440000000000
C       1.463240000000000     -6.167940000000000      4.407290000000000
C       4.199840000000000     -3.766920000000000      3.465170000000000
H       2.824010000000000     -7.455550000000000      3.379260000000000
H       3.645200000000000     -6.242460000000000      4.368580000000000
H       3.063320000000000     -3.781200000000000      1.672020000000000
H       2.028050000000000     -3.826070000000000      3.095400000000000
H       5.122830000000000     -4.189300000000000      3.016800000000000
H       4.257940000000000     -2.659150000000000      3.427890000000000
H       4.126450000000000     -4.070750000000000      4.527850000000000
H       0.610310000000000     -6.335470000000000      3.719410000000000
H       1.390040000000000     -6.887790000000000      5.249370000000000
H       1.410430000000000     -5.143100000000000      4.824420000000000
H       5.057590000000000     -8.660460000000000      2.044270000000000
C       6.385670000000000     -7.045260000000000      2.710280000000000
C       5.616920000000000     -7.791070000000000      1.641240000000000
C       7.439480000000000     -7.962310000000000      3.307340000000000
H       6.868310000000000     -6.151290000000000      2.264210000000000
H       5.683450000000000     -6.707680000000000      3.497190000000000
H       6.940930000000000     -8.854369999999999      3.745450000000000
H       8.133100000000001     -8.291420000000000      2.503150000000000
C       8.227880000000001     -7.243890000000000      4.390420000000000
H       6.261670000000000     -8.071910000000001      0.782840000000000
H       8.740200000000000     -6.354710000000000      3.964740000000000
H       7.547950000000000     -6.919810000000000      5.207200000000000
H       8.987670000000000     -7.937290000000000      4.804100000000000
C       0.916410000000000     -7.167070000000000     -3.399590000000000
C       1.917540000000000     -6.721570000000000     -4.223950000000000
C       2.596450000000000     -5.708520000000000     -3.556740000000000
C       2.034340000000000     -5.555010000000000     -2.349260000000000
N       0.953160000000000     -6.437900000000000     -2.203890000000000
C       2.391400000000000     -4.554730000000000     -1.266860000000000
N       3.697390000000000     -4.731000000000000     -0.610690000000000
C       4.980880000000000     -4.270160000000000     -1.161570000000000
H       2.121030000000000     -7.103060000000000     -5.216460000000000
H       0.203390000000000     -7.950290000000000     -3.616170000000000
H       3.416750000000000     -5.150060000000000     -3.968190000000000
H       1.635630000000000     -4.694640000000000     -0.462690000000000
H       2.261390000000000     -3.522890000000000     -1.631250000000000
C       4.792340000000000     -3.040330000000000     -2.054300000000000
C       5.872690000000000     -3.876930000000000      0.032000000000000
C       5.688260000000000     -5.420480000000000     -1.906580000000000
H       4.283940000000000     -2.238690000000000     -1.474690000000000
H       5.772520000000000     -2.662260000000000     -2.407550000000000
H       4.174850000000000     -3.286490000000000     -2.937550000000000
H       6.016530000000000     -4.742400000000000      0.709880000000000
H       6.875550000000000     -3.540440000000000     -0.309200000000000
H       5.407120000000000     -3.060970000000000      0.624590000000000
H       5.907770000000000     -6.266160000000000     -1.217300000000000
H       5.081920000000000     -5.826360000000000     -2.728190000000000
H       6.653400000000000     -5.070460000000000     -2.330980000000000
C       2.193100000000000     -8.927239999999999     -0.481350000000000
C       0.839180000000000     -7.486250000000000      0.807260000000000
O       2.149820000000000     -7.936560000000000      0.527000000000000
C       3.445120000000000     -8.741740000000000     -1.341690000000000
C       0.087120000000000     -8.484660000000000      1.662290000000000
H       2.247730000000000     -9.921329999999999      0.006100000000000
H       1.313350000000000     -8.903490000000000     -1.159990000000000
H       0.916560000000000     -6.526980000000000      1.356710000000000
H       0.253290000000000     -7.247370000000000     -0.095420000000000
H       0.656500000000000     -8.688290000000000      2.592000000000000
H      -0.907360000000000     -8.064380000000000      1.918120000000000
H      -0.051410000000000     -9.425840000000001      1.092840000000000
H       3.434980000000000     -7.764250000000000     -1.857410000000000
H       4.364210000000000     -8.790270000000000     -0.723900000000000
H       3.494070000000000     -9.537990000000001     -2.112630000000000
