85

Na     -1.833960000000000     -0.978960000000000      0.000740000000000
C       0.680970000000000      1.139150000000000     -1.002680000000000
C       1.261080000000000      0.134580000000000      1.002310000000000
O       0.277690000000000      0.232540000000000     -0.002170000000000
C      -0.417600000000000      1.206060000000000     -2.056860000000000
C       0.770040000000000     -0.850900000000000      2.055530000000000
H       0.817080000000000      2.161480000000000     -0.582210000000000
H       1.615220000000000      0.792200000000000     -1.499600000000000
H       2.218190000000000     -0.254130000000000      0.585870000000000
H       1.420370000000000      1.118320000000000      1.499720000000000
H       0.603240000000000     -1.848540000000000      1.594880000000000
H       1.518730000000000     -0.949620000000000      2.868300000000000
H      -0.187140000000000     -0.494210000000000      2.493280000000000
H      -1.367480000000000      1.552180000000000     -1.595270000000000
H      -0.133860000000000      1.911790000000000     -2.865410000000000
H      -0.581730000000000      0.199950000000000     -2.499270000000000
Mg      5.069260000000000     -5.429550000000000      0.332620000000000
C       3.897680000000000     -5.362020000000000      3.638210000000000
C       4.083970000000000     -3.205150000000000      2.636050000000000
O       4.028570000000000     -4.606600000000000      2.447920000000000
C       2.572420000000000     -5.141990000000000      4.361500000000000
C       5.309210000000000     -2.741490000000000      3.419450000000000
H       3.933130000000000     -6.430490000000000      3.334280000000000
H       4.754410000000000     -5.217420000000000      4.323610000000000
H       4.170540000000000     -2.755620000000000      1.626850000000000
H       3.138790000000000     -2.804470000000000      3.052150000000000
H       6.232520000000000     -3.162960000000000      2.970950000000000
H       5.366110000000000     -1.633660000000000      3.382570000000000
H       5.236150000000000     -3.045680000000000      4.482060000000000
H       1.719530000000000     -5.309230000000000      3.673520000000000
H       2.498850000000000     -5.861700000000000      5.203680000000000
H       2.519610000000000     -4.117180000000000      4.778770000000000
H       6.166840000000000     -7.634750000000000      1.998980000000000
C       7.494940000000000     -6.019680000000000      2.665040000000000
C       6.725980000000000     -6.765240000000000      1.595910000000000
C       8.548769999999999     -6.936800000000000      3.262080000000000
H       7.977660000000000     -5.125730000000000      2.219040000000000
H       6.792790000000000     -5.682110000000000      3.452010000000000
H       8.050219999999999     -7.828870000000000      3.700190000000000
H       9.242390000000000     -7.265910000000000      2.457890000000000
C       9.337210000000001     -6.218420000000000      4.345180000000000
H       7.370860000000000     -7.046260000000000      0.737640000000000
H       9.849550000000001     -5.329230000000000      3.919530000000000
H       8.657310000000001     -5.894330000000000      5.161980000000000
H      10.097009999999999     -6.911810000000000      4.758850000000000
C       2.025890000000000     -6.141460000000000     -3.444300000000000
C       3.026980000000000     -5.695820000000000     -4.268580000000000
C       3.705170000000000     -4.682020000000000     -3.601600000000000
C       3.142510000000000     -4.527900000000000     -2.394280000000000
N       2.062070000000000     -5.411770000000000     -2.248830000000000
C       3.498460000000000     -3.526720000000000     -1.311570000000000
N       4.805260000000000     -3.703420000000000     -0.655760000000000
C       6.089650000000000     -3.244470000000000     -1.206640000000000
H       3.230780000000000     -6.077640000000000     -5.260960000000000
H       1.313220000000000     -6.925050000000000     -3.660840000000000
H       4.525470000000000     -4.123740000000000     -4.013280000000000
H       2.743570000000000     -3.669380000000000     -0.506980000000000
H       3.363260000000000     -2.492360000000000     -1.672990000000000
C       5.902260000000000     -2.015320000000000     -2.099710000000000
C       6.981810000000000     -2.851600000000000     -0.013090000000000
C       6.796820000000000     -4.395330000000000     -1.951380000000000
H       5.394600000000000     -1.213530000000000     -1.519960000000000
H       6.882690000000000     -1.637890000000000     -2.453010000000000
H       5.284470000000000     -2.261720000000000     -2.982610000000000
H       7.125480000000000     -3.717100000000000      0.664800000000000
H       7.984820000000000     -2.515470000000000     -0.354310000000000
H       6.516650000000000     -2.035490000000000      0.579580000000000
H       7.016440000000000     -5.240960000000000     -1.262100000000000
H       6.190760000000000     -4.801140000000000     -2.773220000000000
H       7.762180000000000     -4.045540000000000     -2.375710000000000
C       3.302400000000000     -7.901520000000000     -0.526420000000000
C       1.948500000000000     -6.460360000000000      0.762170000000000
O       3.259140000000000     -6.910740000000000      0.481870000000000
C       4.554390000000000     -7.716100000000000     -1.386840000000000
C       1.196450000000000     -7.458830000000000      1.617160000000000
H       3.357040000000000     -8.895610000000000     -0.038940000000000
H       2.422630000000000     -7.877820000000000     -1.205050000000000
H       2.025860000000000     -5.501010000000000      1.311560000000000
H       1.362570000000000     -6.221570000000000     -0.140500000000000
H       1.765840000000000     -7.662530000000000      2.546850000000000
H       0.201950000000000     -7.038610000000000      1.872990000000000
H       1.057960000000000     -8.400020000000000      1.047680000000000
H       4.544200000000000     -6.738610000000000     -1.902610000000000
H       5.473520000000000     -7.764660000000000     -0.769080000000000
H       4.603330000000000     -8.512409999999999     -2.157730000000000
