130

Na     -0.311180000000000      0.008000000000000      0.200620000000000
C      -1.024800000000000     -2.291310000000000     -1.814460000000000
C      -2.773730000000000     -2.098980000000000     -0.254590000000000
O      -1.423290000000000     -1.812380000000000     -0.546290000000000
C      -1.276820000000000     -1.254240000000000     -2.905290000000000
C      -2.882810000000000     -3.430660000000000      0.476650000000000
H       0.067840000000000     -2.479000000000000     -1.769310000000000
H      -1.495120000000000     -3.264990000000000     -2.070630000000000
H      -3.151790000000000     -1.297270000000000      0.416600000000000
H      -3.425530000000000     -2.079010000000000     -1.155990000000000
H      -2.266900000000000     -3.408960000000000      1.401150000000000
H      -3.940850000000000     -3.618680000000000      0.752460000000000
H      -2.528200000000000     -4.256370000000000     -0.173550000000000
H      -0.760870000000000     -0.302590000000000     -2.661530000000000
H      -0.880290000000000     -1.634400000000000     -3.870230000000000
H      -2.362390000000000     -1.059130000000000     -3.019410000000000
C       0.530150000000000      2.205120000000000      2.364850000000000
C      -0.377720000000000      0.324990000000000      3.426820000000000
O      -0.249940000000000      1.038490000000000      2.218790000000000
C       2.020950000000000      1.907910000000000      2.212360000000000
C      -1.096830000000000     -0.987620000000000      3.131090000000000
H       0.241850000000000      2.891880000000000      1.540940000000000
H       0.313030000000000      2.746720000000000      3.311530000000000
H       0.613550000000000      0.074760000000000      3.861680000000000
H      -0.986890000000000      0.903140000000000      4.154440000000000
H      -0.514040000000000     -1.592480000000000      2.403370000000000
H      -1.221840000000000     -1.576220000000000      4.063600000000000
H      -2.099040000000000     -0.783650000000000      2.697970000000000
H       2.212660000000000      1.386970000000000      1.251730000000000
H       2.589740000000000      2.861240000000000      2.217770000000000
H       2.387870000000000      1.276560000000000      3.046060000000000
C      -1.646970000000000      2.669140000000000     -0.862280000000000
C       0.363500000000000      2.461620000000000     -2.061410000000000
O      -0.441090000000000      1.949260000000000     -1.020750000000000
C      -2.763320000000000      2.047890000000000     -1.695200000000000
C       1.342980000000000      3.496030000000000     -1.519710000000000
H      -1.938440000000000      2.604850000000000      0.207970000000000
H      -1.535040000000000      3.752780000000000     -1.089390000000000
H       0.946120000000000      1.615760000000000     -2.481890000000000
H      -0.231770000000000      2.874300000000000     -2.906230000000000
H       1.962070000000000      3.051950000000000     -0.711790000000000
H       2.012590000000000      3.836030000000000     -2.336890000000000
H       0.795630000000000      4.371590000000000     -1.114610000000000
H      -2.906730000000000      0.983460000000000     -1.411470000000000
H      -3.711130000000000      2.596100000000000     -1.510600000000000
H      -2.521200000000000      2.106900000000000     -2.776220000000000
C       2.862420000000000     -0.455870000000000     -1.057030000000000
C       2.051200000000000     -2.116810000000000      0.394340000000000
O       1.775230000000000     -0.900780000000000     -0.272470000000000
C       2.763940000000000     -0.999730000000000     -2.478430000000000
C       2.655330000000000     -1.858000000000000      1.769170000000000
H       2.808560000000000      0.651830000000000     -1.104610000000000
H       3.849590000000000     -0.696380000000000     -0.603610000000000
H       1.086700000000000     -2.649000000000000      0.538120000000000
H       2.696100000000000     -2.798990000000000     -0.202760000000000
H       1.975510000000000     -1.224790000000000      2.372200000000000
H       2.807440000000000     -2.822240000000000      2.297790000000000
H       3.629530000000000     -1.342930000000000      1.672290000000000
H       1.795130000000000     -0.709050000000000     -2.936260000000000
H       3.588010000000000     -0.580240000000000     -3.092470000000000
H       2.844740000000000     -2.105850000000000     -2.478310000000000
Mg      8.816369999999999      0.270080000000000      4.366260000000000
C       7.923460000000000      3.413010000000000      5.639980000000000
C       7.098300000000000      2.994730000000000      3.440530000000000
O       7.643480000000000      2.459260000000000      4.631770000000000
C       6.678710000000000      4.090470000000000      6.204770000000000
C       8.045990000000000      3.938910000000000      2.705100000000000
H       8.400690000000001      2.853930000000000      6.473670000000000
H       8.671480000000001      4.160960000000000      5.314820000000000
H       6.925800000000000      2.136310000000000      2.761310000000000
H       6.096360000000000      3.440610000000000      3.604210000000000
H       9.033130000000000      3.453490000000000      2.559160000000000
H       7.616560000000000      4.183260000000000      1.711240000000000
H       8.173260000000001      4.885790000000000      3.265640000000000
H       5.944110000000000      3.334260000000000      6.547190000000000
H       6.973440000000000      4.720160000000000      7.070380000000000
H       6.211650000000000      4.746760000000000      5.444360000000000
H      10.854380000000001      1.392030000000000      6.216230000000000
C      11.388230000000000      2.516580000000000      4.408860000000000
C      10.957689999999999      1.252300000000000      5.120370000000000
C      12.767890000000000      2.925530000000000      4.895990000000000
H      11.409400000000000      2.336940000000000      3.314150000000000
H      10.656029999999999      3.320780000000000      4.617310000000000
H      12.731120000000001      3.097030000000000      5.993940000000000
H      13.487670000000000      2.106230000000000      4.679610000000000
C      13.228800000000000      4.197670000000000      4.203190000000000
H      11.609470000000000      0.389840000000000      4.869800000000000
H      13.279909999999999      4.038260000000000      3.104870000000000
H      12.524229999999999      5.028660000000000      4.421140000000000
H      14.236490000000000      4.468230000000000      4.578100000000000
C       6.165280000000000     -3.736000000000000      5.354240000000000
C       6.825260000000000     -4.363100000000000      4.329010000000000
C       7.035970000000000     -3.425760000000000      3.324260000000000
C       6.533510000000000     -2.252890000000000      3.736590000000000
N       5.951470000000000     -2.395840000000000      5.005260000000000
C       6.485880000000000     -0.935280000000000      2.986550000000000
N       7.775630000000000     -0.270660000000000      2.738980000000000
C       8.698660000000000     -0.613440000000000      1.646150000000000
H       7.116620000000000     -5.405890000000000      4.323510000000000
H       5.850940000000000     -4.182360000000000      6.287290000000000
H       7.508850000000000     -3.636260000000000      2.383150000000000
H       5.913080000000000     -0.237160000000000      3.636310000000000
H       5.902470000000000     -1.034050000000000      2.057040000000000
C       7.945020000000000     -1.180030000000000      0.439450000000000
C       9.399670000000000      0.690210000000000      1.217770000000000
C       9.789660000000000     -1.580050000000000      2.149810000000000
H       7.174520000000000     -0.448900000000000      0.109810000000000
H       8.642609999999999     -1.370150000000000     -0.400610000000000
H       7.444760000000000     -2.130980000000000      0.699150000000000
H       9.943090000000000      1.137440000000000      2.074440000000000
H      10.136210000000000      0.502750000000000      0.406750000000000
H       8.661890000000000      1.439890000000000      0.860850000000000
H      10.393240000000000     -1.112560000000000      2.959470000000000
H       9.372130000000000     -2.510790000000000      2.558350000000000
H      10.481610000000000     -1.846720000000000      1.322610000000000
C       8.246400000000000     -1.281930000000000      7.056090000000000
C       6.479240000000000      0.245170000000000      6.716540000000000
O       7.836940000000000     -0.062210000000000      6.469000000000000
C       9.242369999999999     -1.994420000000000      6.138190000000000
C       6.284750000000000      0.778400000000000      8.120590000000000
H       8.754310000000000     -1.056170000000000      8.015210000000000
H       7.405410000000000     -1.982990000000000      7.246760000000000
H       6.165320000000000      1.020490000000000      5.989610000000000
H       5.796470000000000     -0.601600000000000      6.537690000000000
H       6.939070000000000      1.659080000000000      8.282780000000001
H       5.223070000000000      1.073070000000000      8.251250000000001
H       6.534720000000000     -0.015260000000000      8.853330000000000
H       8.779940000000000     -2.249090000000000      5.167140000000000
H      10.125990000000000     -1.356120000000000      5.936720000000000
H       9.586550000000001     -2.935730000000000      6.613860000000000
