70

Na     -1.710260000000000     -0.770220000000000      0.918500000000000
C       0.614560000000000      0.023210000000000     -1.486680000000000
C       1.193710000000000      1.026690000000000      0.518700000000000
O       0.257020000000000      0.202090000000000     -0.135560000000000
C      -0.429620000000000     -0.872680000000000     -2.141640000000000
C       0.756470000000000      1.186790000000000      1.969440000000000
H       0.622130000000000      0.996480000000000     -2.028210000000000
H       1.603890000000000     -0.480750000000000     -1.572850000000000
H       2.205340000000000      0.561110000000000      0.512840000000000
H       1.225410000000000      2.038840000000000      0.054990000000000
H       0.712170000000000      0.193400000000000      2.463930000000000
H       1.473890000000000      1.830650000000000      2.519890000000000
H      -0.251730000000000      1.652020000000000      2.013940000000000
H      -1.432500000000000     -0.398340000000000     -2.075470000000000
H      -0.180490000000000     -1.036620000000000     -3.210920000000000
H      -0.464500000000000     -1.856260000000000     -1.625250000000000
Mg     -0.251150000000000     -5.750360000000000      2.704230000000000
C       2.159690000000000     -5.838020000000000      0.612750000000000
C       0.285790000000000     -7.084130000000000     -0.175890000000000
O       1.105220000000000     -6.730220000000000      0.917960000000000
C       1.701000000000000     -4.494260000000000      0.046150000000000
C       1.004840000000000     -8.007590000000000     -1.145790000000000
H       2.655180000000000     -5.617860000000000      1.575680000000000
H       2.941960000000000     -6.317090000000000     -0.008750000000000
H      -0.575850000000000     -7.645140000000000      0.247680000000000
H      -0.160910000000000     -6.205990000000000     -0.685810000000000
H       1.447380000000000     -8.859520000000000     -0.587800000000000
H       0.280960000000000     -8.394950000000000     -1.892120000000000
H       1.803250000000000     -7.453430000000000     -1.678700000000000
H       0.862930000000000     -4.085180000000000      0.644460000000000
H       2.546860000000000     -3.776030000000000      0.078600000000000
H       1.382010000000000     -4.604820000000000     -1.008890000000000
H      -1.788220000000000     -3.748580000000000      2.081180000000000
C      -3.085500000000000     -5.499160000000000      2.167610000000000
C      -1.813060000000000     -4.800750000000000      1.733790000000000
C      -3.169270000000000     -5.567160000000000      3.696790000000000
H      -3.938750000000000     -4.929980000000000      1.748570000000000
H      -3.095950000000000     -6.536080000000000      1.763000000000000
H      -2.366920000000000     -6.229370000000000      4.084340000000000
H      -3.029690000000000     -4.558090000000000      4.138610000000000
C      -4.525200000000000     -6.101560000000000      4.140430000000000
H      -1.682640000000000     -4.843950000000000      0.633980000000000
H      -5.323440000000000     -5.409390000000000      3.796690000000000
H      -4.708570000000000     -7.111850000000000      3.717610000000000
H      -4.561520000000000     -6.161190000000000      5.248440000000000
C      -1.049590000000000     -8.161610000000000      5.575900000000000
C      -0.856430000000000     -8.584040000000000      4.281880000000000
C       0.322330000000000     -8.016970000000001      3.830190000000000
C       0.817870000000000     -7.253260000000000      4.814810000000000
N       0.012220000000000     -7.325530000000000      5.962750000000000
C       2.065580000000000     -6.408350000000000      4.744410000000000
N       1.881850000000000     -5.243890000000000      3.862300000000000
C       1.614040000000000     -3.926270000000000      4.491140000000000
H      -1.524650000000000     -9.227729999999999      3.721460000000000
H      -1.888450000000000     -8.413430000000000      6.205780000000000
H       0.745500000000000     -8.155939999999999      2.850100000000000
H       2.899150000000000     -7.029630000000000      4.353530000000000
H       2.338610000000000     -6.103640000000000      5.767880000000000
C       2.807230000000000     -3.484190000000000      5.360790000000000
C       1.444750000000000     -2.894090000000000      3.358670000000000
C       0.316480000000000     -3.937160000000000      5.327360000000000
H       3.745600000000000     -3.523650000000000      4.767950000000000
H       2.658920000000000     -2.443330000000000      5.720860000000000
H       2.925960000000000     -4.115590000000000      6.261690000000000
H       0.565320000000000     -3.141170000000000      2.729350000000000
H       1.285820000000000     -1.872360000000000      3.767830000000000
H       2.344100000000000     -2.873540000000000      2.706240000000000
H      -0.567080000000000     -4.146750000000000      4.687790000000000
H       0.359630000000000     -4.697570000000000      6.130140000000000
H       0.159190000000000     -2.948540000000000      5.812210000000000
