70

Na     -0.120950000000000      1.972990000000000     -0.911950000000000
C      -0.224120000000000     -1.431130000000000     -0.517830000000000
C       0.355690000000000     -0.429590000000000      1.489690000000000
O       0.018980000000000     -0.208790000000000      0.139230000000000
C      -0.582650000000000     -1.130300000000000     -1.968490000000000
C       0.604250000000000      0.924220000000000      2.144980000000000
H       0.685810000000000     -2.073330000000000     -0.512830000000000
H      -1.084500000000000     -1.964800000000000     -0.055750000000000
H      -0.479700000000000     -0.927940000000000      2.032160000000000
H       1.289660000000000     -1.030340000000000      1.573610000000000
H      -0.310160000000000      1.552590000000000      2.079740000000000
H       0.873510000000000      0.792820000000000      3.213770000000000
H       1.435120000000000      1.450860000000000      1.627660000000000
H       0.254440000000000     -0.593510000000000     -2.464680000000000
H      -0.781570000000000     -2.072720000000000     -2.520380000000000
H      -1.490780000000000     -0.491060000000000     -2.011290000000000
Mg      0.241080000000000     -7.408050000000000      4.240100000000000
C      -0.658810000000000     -5.135500000000000      1.387960000000000
C      -1.305000000000000     -4.115840000000000      3.352950000000000
O      -1.239560000000000     -5.346280000000000      2.660220000000000
C      -0.967850000000000     -6.317470000000000      0.481870000000000
C      -1.845080000000000     -4.347180000000000      4.758210000000000
H      -1.073560000000000     -4.234510000000000      0.886020000000000
H       0.442090000000000     -5.032630000000000      1.479870000000000
H      -0.302240000000000     -3.646570000000000      3.435240000000000
H      -1.992540000000000     -3.413330000000000      2.836260000000000
H      -1.174950000000000     -5.020800000000000      5.329650000000000
H      -1.915020000000000     -3.378450000000000      5.296690000000000
H      -2.855700000000000     -4.802900000000000      4.705570000000000
H      -2.064170000000000     -6.442960000000000      0.374060000000000
H      -0.510540000000000     -6.156830000000000     -0.516430000000000
H      -0.556970000000000     -7.247830000000000      0.898210000000000
H      -2.632590000000000     -7.186260000000000      5.592930000000000
C      -1.119530000000000     -8.289380000000000      6.757520000000000
C      -1.847230000000000     -7.955510000000000      5.460820000000000
C      -0.462810000000000     -7.048420000000000      7.377970000000000
H      -1.862370000000000     -8.716910000000000      7.460570000000000
H      -0.333400000000000     -9.049400000000000      6.549590000000000
H       0.327630000000000     -6.651310000000000      6.703020000000000
H      -1.226840000000000     -6.257230000000000      7.533280000000000
C       0.161710000000000     -7.386040000000000      8.729970000000000
H      -2.249940000000000     -8.866790000000000      4.973670000000000
H      -0.619910000000000     -7.765450000000000      9.422670000000000
H       0.951590000000000     -8.158410000000000      8.614910000000000
H       0.614490000000000     -6.475360000000000      9.176110000000000
C       1.701990000000000     -4.636560000000000      4.677470000000000
C       2.745140000000000     -4.043130000000000      3.989020000000000
C       3.124940000000000     -4.932610000000000      2.994470000000000
C       2.290750000000000     -6.020460000000000      3.107490000000000
N       1.432900000000000     -5.822870000000000      4.117350000000000
C       2.294230000000000     -7.296100000000000      2.283690000000000
N       1.052410000000000     -8.072810000000000      2.504930000000000
C       1.014590000000000     -9.499440000000000      2.125280000000000
H       3.179000000000000     -3.074740000000000      4.190870000000000
H       1.166990000000000     -4.215210000000000      5.521470000000000
H       3.911340000000000     -4.799240000000000      2.264930000000000
H       2.358220000000000     -7.039390000000000      1.207230000000000
H       3.191190000000000     -7.868930000000000      2.589610000000000
C       1.862610000000000    -10.350610000000000      3.087090000000000
C      -0.445770000000000     -9.990060000000000      2.203260000000000
C       1.510150000000000     -9.673340000000000      0.675800000000000
H       1.474630000000000    -10.268440000000000      4.125300000000000
H       1.825810000000000    -11.420140000000000      2.784060000000000
H       2.925010000000000    -10.038610000000000      3.080180000000000
H      -1.103080000000000     -9.416060000000000      1.517110000000000
H      -0.516900000000000    -11.063780000000000      1.920360000000000
H      -0.842680000000000     -9.879799999999999      3.233900000000000
H       0.904160000000000     -9.046300000000000     -0.014120000000000
H       2.573280000000000     -9.369949999999999      0.581350000000000
H       1.427100000000000    -10.732220000000000      0.352240000000000
