100

Na     -0.369920000000000     -0.050660000000000      0.034800000000000
C      -0.273580000000000      1.428500000000000     -2.731380000000000
C      -2.511570000000000      0.883160000000000     -2.257440000000000
O      -1.153920000000000      0.623550000000000     -1.973930000000000
C       0.032440000000000      2.742990000000000     -2.018730000000000
C      -3.002790000000000     -0.034830000000000     -3.369480000000000
H       0.678820000000000      0.869130000000000     -2.836650000000000
H      -0.641500000000000      1.608810000000000     -3.764250000000000
H      -3.096320000000000      0.664500000000000     -1.337420000000000
H      -2.706680000000000      1.951200000000000     -2.499980000000000
H      -2.848290000000000     -1.097200000000000     -3.083050000000000
H      -4.084780000000000      0.137610000000000     -3.544070000000000
H      -2.449980000000000      0.169290000000000     -4.309150000000000
H       0.446120000000000      2.548730000000000     -1.007600000000000
H       0.785300000000000      3.310530000000000     -2.605310000000000
H      -0.883000000000000      3.361320000000000     -1.923270000000000
C      -0.425250000000000     -1.737460000000000      2.745800000000000
C      -1.809590000000000     -2.736940000000000      1.141850000000000
O      -1.131830000000000     -1.566600000000000      1.536700000000000
C       0.964890000000000     -2.322200000000000      2.505910000000000
C      -2.404630000000000     -2.496920000000000     -0.242510000000000
H      -0.288720000000000     -0.727040000000000      3.186300000000000
H      -0.997640000000000     -2.329290000000000      3.493370000000000
H      -1.120200000000000     -3.605020000000000      1.066490000000000
H      -2.638510000000000     -2.959970000000000      1.847380000000000
H      -1.600530000000000     -2.269690000000000     -0.975350000000000
H      -2.955470000000000     -3.396820000000000     -0.586370000000000
H      -3.106220000000000     -1.636350000000000     -0.211590000000000
H       1.523300000000000     -1.702170000000000      1.775050000000000
H       1.528760000000000     -2.338460000000000      3.462080000000000
H       0.897200000000000     -3.357410000000000      2.119330000000000
C      -0.958910000000000      2.113380000000000      2.260370000000000
C       1.357130000000000      2.229290000000000      1.876480000000000
O       0.152790000000000      1.548770000000000      1.594870000000000
C      -1.638530000000000      3.163950000000000      1.388090000000000
C       2.063580000000000      1.595710000000000      3.069320000000000
H      -1.688480000000000      1.296540000000000      2.447640000000000
H      -0.697110000000000      2.531170000000000      3.257930000000000
H       2.014330000000000      2.128370000000000      0.987880000000000
H       1.211820000000000      3.322010000000000      2.028130000000000
H       2.245060000000000      0.516690000000000      2.879560000000000
H       3.039610000000000      2.098450000000000      3.231930000000000
H       1.446840000000000      1.701930000000000      3.985040000000000
H      -1.952790000000000      2.715690000000000      0.421440000000000
H      -2.539080000000000      3.551150000000000      1.909750000000000
H      -0.949310000000000      4.010300000000000      1.189760000000000
C       2.998380000000000     -0.447370000000000     -0.544540000000000
C       1.544730000000000     -1.770080000000000     -1.833440000000000
O       1.655380000000000     -0.768110000000000     -0.841910000000000
C       3.495100000000000      0.689170000000000     -1.432040000000000
C       1.510780000000000     -3.158470000000000     -1.204520000000000
H       3.033840000000000     -0.104950000000000      0.510710000000000
H       3.675720000000000     -1.327640000000000     -0.604830000000000
H       0.582800000000000     -1.611200000000000     -2.366340000000000
H       2.341910000000000     -1.701310000000000     -2.606330000000000
H       0.675250000000000     -3.228570000000000     -0.480410000000000
H       1.358090000000000     -3.920920000000000     -1.996840000000000
H       2.462390000000000     -3.373220000000000     -0.677620000000000
H       2.839580000000000      1.578580000000000     -1.323300000000000
H       4.526560000000000      0.968500000000000     -1.131580000000000
H       3.504610000000000      0.376430000000000     -2.496040000000000
Mg     -3.325160000000000     -6.845590000000000      5.851710000000000
H      -2.788600000000000     -6.525250000000000      8.832030000000000
C      -3.262630000000000     -8.673120000000001      8.800530000000000
C      -3.455750000000000     -7.246730000000000      8.320440000000000
C      -1.819630000000000     -9.178900000000001      8.653430000000000
H      -3.545410000000000     -8.706709999999999      9.872690000000000
H      -3.946420000000000     -9.344230000000000      8.237890000000000
H      -1.122220000000000     -8.529400000000001      9.226139999999999
H      -1.790220000000000    -10.196980000000000      9.093970000000001
C      -1.337020000000000     -9.284860000000000      7.203750000000000
H      -4.519700000000000     -6.937840000000000      8.420109999999999
H      -1.202580000000000     -8.281459999999999      6.751870000000000
H      -0.353990000000000     -9.804930000000001      7.187840000000000
H      -2.050040000000000     -9.875600000000000      6.590010000000000
C      -0.486130000000000     -5.826770000000000      4.853440000000000
C       0.108490000000000     -5.859440000000000      3.602070000000000
C      -0.793140000000000     -6.470310000000000      2.744710000000000
C      -1.887640000000000     -6.800170000000000      3.508400000000000
N      -1.694910000000000     -6.400360000000000      4.775050000000000
C      -3.160350000000000     -7.487590000000000      3.058210000000000
N      -3.956180000000000     -7.896750000000000      4.232990000000000
C      -5.207930000000000     -8.657690000000001      4.066010000000000
H       1.085070000000000     -5.478570000000000      3.341520000000000
H      -0.058040000000000     -5.406830000000000      5.756170000000000
H      -0.664100000000000     -6.664550000000000      1.688330000000000
H      -3.725890000000000     -6.768560000000000      2.429700000000000
H      -2.884590000000000     -8.381119999999999      2.469710000000000
C      -4.889660000000000    -10.048209999999999      3.481890000000000
C      -5.863250000000000     -8.849190000000000      5.445960000000000
C      -6.190110000000000     -7.908280000000000      3.148030000000000
H      -4.192290000000000    -10.595350000000000      4.154050000000000
H      -5.815330000000000    -10.650320000000001      3.366300000000000
H      -4.418970000000000     -9.970150000000000      2.481610000000000
H      -6.125720000000000     -7.869770000000000      5.899840000000000
H      -6.795380000000000     -9.451219999999999      5.355710000000000
H      -5.176070000000000     -9.382490000000001      6.135900000000000
H      -6.418430000000000     -6.903730000000000      3.564160000000000
H      -5.768050000000000     -7.785810000000000      2.129430000000000
H      -7.140690000000000     -8.476030000000000      3.050420000000000
