70

Na     -0.120960000000000      1.973270000000000     -0.912090000000000
C      -0.224010000000000     -1.430620000000000     -0.518450000000000
C       0.355630000000000     -0.429160000000000      1.489030000000000
O       0.018580000000000     -0.208250000000000      0.138710000000000
C      -0.582750000000000     -1.130020000000000     -1.968950000000000
C       0.604220000000000      0.924570000000000      2.144550000000000
H       0.686390000000000     -2.071980000000000     -0.513900000000000
H      -1.084100000000000     -1.965010000000000     -0.056330000000000
H      -0.479580000000000     -0.927640000000000      2.031530000000000
H       1.289510000000000     -1.030060000000000      1.572700000000000
H      -0.310210000000000      1.552910000000000      2.079480000000000
H       0.873480000000000      0.793060000000000      3.213340000000000
H       1.435100000000000      1.451260000000000      1.627340000000000
H       0.254260000000000     -0.593130000000000     -2.465120000000000
H      -0.781430000000000     -2.072610000000000     -2.520630000000000
H      -1.491040000000000     -0.491020000000000     -2.011630000000000
Mg     -1.405530000000000     -7.216860000000000      4.598820000000000
C      -2.923380000000000     -9.133340000000000      1.747590000000000
C      -3.482180000000000    -10.202230000000000      3.713350000000000
O      -2.449590000000000     -9.530910000000000      3.019730000000000
C      -1.745380000000000     -8.809740000000000      0.841190000000000
C      -3.012220000000000    -10.554270000000001      5.118570000000000
H      -3.498940000000000     -9.942670000000000      1.245590000000000
H      -3.561680000000000     -8.230490000000000      1.840170000000000
H      -4.389560000000000     -9.568000000000000      3.796060000000000
H      -3.746810000000000    -11.149150000000001      3.197200000000000
H      -2.764300000000000     -9.637060000000000      5.689960000000000
H      -3.816630000000000    -11.099080000000001      5.656650000000000
H      -2.112570000000000    -11.201990000000000      5.065960000000000
H      -1.088600000000000     -9.696400000000001      0.732990000000000
H      -2.113160000000000     -8.493449999999999     -0.156930000000000
H      -1.145180000000000     -7.988770000000000      1.257820000000000
H      -0.161500000000000     -9.816960000000000      5.952180000000000
C       0.037220000000000     -7.955060000000000      7.116740000000000
C       0.111910000000000     -8.752190000000001      5.820040000000000
C      -1.365840000000000     -8.006819999999999      7.737210000000000
H       0.778890000000000     -8.384620000000000      7.819780000000000
H       0.302330000000000     -6.894240000000000      6.908820000000000
H      -2.104970000000000     -7.520830000000000      7.062260000000000
H      -1.669000000000000     -9.064080000000001      7.892550000000000
C      -1.385730000000000     -7.297170000000000      9.089210000000000
H       1.102440000000000     -8.645260000000000      5.332850000000000
H      -0.666350000000000     -7.784380000000000      9.781910000000000
H      -1.111790000000000     -6.226930000000000      8.974150000000000
H      -2.400800000000000     -7.360400000000000      9.535330000000000
C      -4.536030000000000     -7.336680000000000      5.037310000000000
C      -5.571580000000000     -6.729590000000000      4.349290000000000
C      -4.991320000000000     -5.956060000000000      3.354540000000000
C      -3.632140000000000     -6.134830000000000      3.467130000000000
N      -3.374210000000000     -6.976760000000000      4.476850000000000
C      -2.529370000000000     -5.494190000000000      2.642850000000000
N      -1.235690000000000     -6.181070000000000      2.863990000000000
C       0.018630000000000     -5.500440000000000      2.484010000000000
H      -6.627160000000000     -6.837910000000000      4.551370000000000
H      -4.633470000000000     -8.010920000000000      5.881160000000000
H      -5.500160000000000     -5.341740000000000      2.625050000000000
H      -2.783960000000000     -5.567570000000000      1.566460000000000
H      -2.481770000000000     -4.430860000000000      2.948300000000000
C       0.331360000000000     -4.339290000000000      3.444680000000000
C       1.173580000000000     -6.519910000000000      2.562380000000000
C      -0.078770000000000     -4.985120000000000      1.034700000000000
H       0.454180000000000     -4.715940000000000      4.483120000000000
H       1.275680000000000     -3.836110000000000      3.141170000000000
H      -0.470040000000000     -3.575170000000000      3.436960000000000
H       1.004930000000000     -7.376420000000000      1.876500000000000
H       2.139070000000000     -6.045000000000000      2.279340000000000
H       1.276270000000000     -6.918810000000000      3.593060000000000
H      -0.317960000000000     -5.823490000000000      0.344660000000000
H      -0.874970000000000     -4.219090000000000      0.941900000000000
H       0.878660000000000     -4.525340000000000      0.711100000000000
