55

Na      1.701900000000000     -0.764990000000000     -0.912980000000000
C      -1.195670000000000      1.025230000000000     -0.519420000000000
C      -0.616120000000000      0.021790000000000      1.487350000000000
O      -0.256670000000000      0.205070000000000      0.137240000000000
C      -0.755720000000000      1.186870000000000     -1.969800000000000
C       0.432910000000000     -0.868360000000000      2.143220000000000
H      -2.205340000000000      0.555430000000000     -0.515810000000000
H      -1.232710000000000      2.037170000000000     -0.055780000000000
H      -0.630960000000000      0.993980000000000      2.030510000000000
H      -1.602420000000000     -0.488640000000000      1.570430000000000
H       1.433080000000000     -0.388250000000000      2.080080000000000
H       0.182720000000000     -1.037600000000000      3.211430000000000
H       0.477380000000000     -1.849410000000000      1.624370000000000
H      -0.708740000000000      0.193610000000000     -2.466150000000000
H      -1.472890000000000      1.830000000000000     -2.521470000000000
H       0.251490000000000      1.654780000000000     -2.012010000000000
Mg     -4.515950000000000     -4.547940000000000     -0.295690000000000
H      -6.690730000000000     -2.929280000000000      0.978120000000000
C      -6.040470000000000     -4.112460000000000      2.705790000000000
C      -6.377120000000000     -3.961360000000000      1.236160000000000
C      -7.291190000000000     -3.851880000000000      3.535580000000000
H      -5.663970000000000     -5.142470000000000      2.889650000000000
H      -5.237850000000000     -3.389130000000000      2.970180000000000
H      -7.658500000000000     -2.823080000000000      3.328510000000000
H      -8.079120000000000     -4.581500000000000      3.246540000000000
C      -7.005260000000000     -3.990250000000000      5.022710000000000
H      -7.117880000000000     -4.715670000000000      0.897640000000000
H      -6.652940000000000     -5.018400000000000      5.251890000000000
H      -6.231470000000000     -3.256910000000000      5.334270000000000
H      -7.938410000000000     -3.793650000000000      5.589810000000000
C      -4.666200000000000     -3.196660000000000     -3.161700000000000
C      -3.733430000000000     -3.116260000000000     -4.183440000000000
C      -2.593640000000000     -3.768350000000000     -3.739210000000000
C      -2.872230000000000     -4.207560000000000     -2.466630000000000
N      -4.123730000000000     -3.861530000000000     -2.130930000000000
C      -1.961670000000000     -4.987040000000000     -1.537910000000000
N      -2.568720000000000     -5.094850000000000     -0.196140000000000
C      -1.858980000000000     -5.775250000000000      0.902210000000000
H      -3.867550000000000     -2.642140000000000     -5.145290000000000
H      -5.673780000000000     -2.798090000000000     -3.179600000000000
H      -1.664580000000000     -3.902970000000000     -4.275840000000000
H      -0.998190000000000     -4.450850000000000     -1.465050000000000
H      -1.816130000000000     -5.992780000000000     -1.982380000000000
C      -0.589250000000000     -4.981990000000000      1.263220000000000
C      -2.773410000000000     -5.819790000000000      2.140070000000000
C      -1.493060000000000     -7.216480000000000      0.505320000000000
H      -0.860830000000000     -3.947740000000000      1.567570000000000
H      -0.045030000000000     -5.466720000000000      2.100730000000000
H       0.107730000000000     -4.921660000000000      0.403570000000000
H      -3.697590000000000     -6.398290000000000      1.927680000000000
H      -2.250470000000000     -6.305550000000000      2.994540000000000
H      -3.062670000000000     -4.794070000000000      2.453750000000000
H      -2.408520000000000     -7.786000000000000      0.235500000000000
H      -0.798150000000000     -7.227380000000000     -0.359020000000000
H      -0.987610000000000     -7.735730000000000      1.347660000000000
