55

Na      0.000040000000000      2.185640000000000     -0.001230000000000
C      -1.158510000000000     -1.042150000000000     -0.000670000000000
C       1.158710000000000     -1.044040000000000     -0.000140000000000
O       0.000610000000000     -0.241180000000000      0.000800000000000
C      -2.374080000000000     -0.122410000000000      0.000810000000000
C       2.374600000000000     -0.124560000000000      0.001590000000000
H      -1.204390000000000     -1.673820000000000     -0.916730000000000
H      -1.205060000000000     -1.673990000000000      0.914480000000000
H       1.204070000000000     -1.678660000000000      0.913990000000000
H       1.204530000000000     -1.674890000000000     -0.916710000000000
H       2.361760000000000      0.522020000000000      0.905450000000000
H       3.310510000000000     -0.721360000000000      0.000830000000000
H       2.362260000000000      0.524830000000000     -0.900330000000000
H      -2.361920000000000      0.526970000000000     -0.900990000000000
H      -3.309900000000000     -0.719500000000000      0.000090000000000
H      -2.361450000000000      0.523570000000000      0.905090000000000
Mg      0.315450000000000     -5.633080000000000     -1.443390000000000
H      -2.534180000000000     -5.312240000000000     -2.467770000000000
C      -2.269500000000000     -7.460260000000000     -2.862630000000000
C      -1.757510000000000     -6.033690000000000     -2.789710000000000
C      -2.863480000000000     -7.966260000000000     -1.539440000000000
H      -3.056590000000000     -7.494050000000000     -3.643620000000000
H      -1.440200000000000     -8.131209999999999     -3.173500000000000
H      -3.708240000000000     -7.316900000000000     -1.221780000000000
H      -3.259550000000000     -8.984430000000000     -1.734210000000000
C      -1.849220000000000     -8.072060000000000     -0.396770000000000
H      -1.311680000000000     -5.724770000000000     -3.760850000000000
H      -1.524890000000000     -7.068600000000000     -0.054790000000000
H      -2.326930000000000     -8.591799999999999      0.462740000000000
H      -0.961350000000000     -8.663069999999999     -0.707350000000000
C      -0.240350000000000     -4.614230000000000      1.514290000000000
C       0.547170000000000     -4.644580000000000      2.654440000000000
C       1.739660000000000     -5.257630000000000      2.302660000000000
C       1.624900000000000     -5.587980000000000      0.973100000000000
N       0.432260000000000     -5.188190000000000      0.506550000000000
C       2.651730000000000     -6.275700000000000      0.096640000000000
N       2.032570000000000     -6.684550000000000     -1.180070000000000
C       2.803480000000000     -7.445280000000000     -2.180390000000000
H       0.286710000000000     -4.260620000000000      3.630450000000000
H      -1.236090000000000     -4.195060000000000      1.433220000000000
H       2.590150000000000     -5.451950000000000      2.942190000000000
H       3.478880000000000     -5.556750000000000     -0.078640000000000
H       3.023350000000000     -7.169160000000000      0.629840000000000
C       3.150310000000000     -8.835760000000001     -1.612630000000000
C       1.936110000000000     -7.636700000000000     -3.437820000000000
C       4.089530000000000     -6.695690000000000     -2.571800000000000
H       2.219570000000000     -9.382890000000000     -1.344610000000000
H       3.713200000000000     -9.437880000000000     -2.356510000000000
H       3.781350000000000     -8.757660000000000     -0.704930000000000
H       1.674200000000000     -6.657190000000000     -3.891830000000000
H       2.480360000000000     -8.238610000000000     -4.199980000000000
H       0.995060000000000     -8.170019999999999     -3.187580000000000
H       3.843310000000000     -5.691110000000000     -2.977530000000000
H       4.760610000000000     -6.573250000000000     -1.696950000000000
H       4.649460000000000     -7.263370000000000     -3.346200000000000
