115

Na     -0.375290000000000     -0.048460000000000      0.032510000000000
C      -0.275070000000000      1.432030000000000     -2.738280000000000
C      -2.511870000000000      0.886110000000000     -2.263300000000000
O      -1.154090000000000      0.624670000000000     -1.982160000000000
C       0.030540000000000      2.743340000000000     -2.020320000000000
C      -3.004910000000000     -0.034040000000000     -3.372140000000000
H       0.677310000000000      0.873180000000000     -2.847080000000000
H      -0.644690000000000      1.616360000000000     -3.770060000000000
H      -3.095350000000000      0.670870000000000     -1.341700000000000
H      -2.706410000000000      1.953740000000000     -2.508870000000000
H      -2.849490000000000     -1.095400000000000     -3.082600000000000
H      -4.087050000000000      0.138100000000000     -3.545760000000000
H      -2.452570000000000      0.167790000000000     -4.312650000000000
H       0.444480000000000      2.543810000000000     -1.010290000000000
H       0.782460000000000      3.314030000000000     -2.604840000000000
H      -0.885590000000000      3.360180000000000     -1.921190000000000
C      -0.426670000000000     -1.739860000000000      2.748930000000000
C      -1.812170000000000     -2.735370000000000      1.144670000000000
O      -1.134210000000000     -1.565530000000000      1.540680000000000
C       0.962890000000000     -2.325070000000000      2.505920000000000
C      -2.405910000000000     -2.496800000000000     -0.240050000000000
H      -0.289940000000000     -0.730970000000000      3.192740000000000
H      -0.998420000000000     -2.333480000000000      3.495680000000000
H      -1.122790000000000     -3.603440000000000      1.069290000000000
H      -2.642000000000000     -2.957820000000000      1.849390000000000
H      -1.601040000000000     -2.270010000000000     -0.972080000000000
H      -2.955210000000000     -3.398140000000000     -0.582870000000000
H      -3.108650000000000     -1.637250000000000     -0.210050000000000
H       1.519650000000000     -1.703790000000000      1.774770000000000
H       1.528360000000000     -2.339160000000000      3.459460000000000
H       0.896140000000000     -3.363160000000000      2.123760000000000
C      -0.957580000000000      2.116560000000000      2.264420000000000
C       1.357890000000000      2.232360000000000      1.882510000000000
O       0.154180000000000      1.551110000000000      1.599780000000000
C      -1.636890000000000      3.164450000000000      1.389090000000000
C       2.064150000000000      1.596340000000000      3.074240000000000
H      -1.686720000000000      1.300030000000000      2.454290000000000
H      -0.695940000000000      2.537510000000000      3.260890000000000
H       2.014970000000000      2.134610000000000      0.993360000000000
H       1.211690000000000      3.324810000000000      2.036880000000000
H       2.245410000000000      0.517900000000000      2.881200000000000
H       3.039910000000000      2.099000000000000      3.238280000000000
H       1.447090000000000      1.699760000000000      3.990200000000000
H      -1.949670000000000      2.712890000000000      0.423530000000000
H      -2.537910000000000      3.552710000000000      1.909010000000000
H      -0.947510000000000      4.010280000000000      1.188800000000000
C       3.002440000000000     -0.449560000000000     -0.546650000000000
C       1.549270000000000     -1.771210000000000     -1.835300000000000
O       1.659060000000000     -0.769690000000000     -0.843220000000000
C       3.496550000000000      0.688400000000000     -1.433190000000000
C       1.513810000000000     -3.158740000000000     -1.205450000000000
H       3.039790000000000     -0.109500000000000      0.509320000000000
H       3.680450000000000     -1.329340000000000     -0.610360000000000
H       0.588610000000000     -1.611690000000000     -2.370170000000000
H       2.348120000000000     -1.703820000000000     -2.606820000000000
H       0.677500000000000     -3.226390000000000     -0.481960000000000
H       1.361420000000000     -3.921810000000000     -1.997130000000000
H       2.464810000000000     -3.373340000000000     -0.677200000000000
H       2.839680000000000      1.576370000000000     -1.321460000000000
H       4.528330000000000      0.968050000000000     -1.134370000000000
H       3.503860000000000      0.377110000000000     -2.497710000000000
Mg      1.884930000000000      0.207500000000000     10.299130000000000
C       4.300660000000000      0.115440000000000      8.204510000000001
C       2.426710000000000     -1.131010000000000      7.417960000000000
O       3.245960000000000     -0.775890000000000      8.511850000000001
C       3.840800000000000      1.458720000000000      7.638720000000000
C       3.145530000000000     -2.055290000000000      6.448880000000000
H       4.798890000000000      0.335940000000000      9.166440000000000
H       5.080600000000000     -0.363560000000000      7.579930000000000
H       1.565100000000000     -1.691990000000000      7.841350000000000
H       1.979600000000000     -0.253630000000000      6.906940000000000
H       3.584960000000000     -2.909070000000000      7.006240000000000
H       2.420870000000000     -2.441200000000000      5.704330000000000
H       3.945150000000000     -1.503310000000000      5.915400000000000
H       3.008210000000000      1.869450000000000      8.243440000000000
H       4.688540000000000      2.174980000000000      7.663790000000000
H       3.513360000000000      1.347950000000000      6.586110000000000
H       0.341000000000000      2.209950000000000      9.675380000000001
C      -0.952470000000000      0.457940000000000      9.763059999999999
C       0.319040000000000      1.157430000000000      9.328480000000001
C      -1.034250000000000      0.391040000000000     11.292280000000000
H      -1.807320000000000      1.025370000000000      9.344420000000000
H      -0.961560000000000     -0.579110000000000      9.358960000000000
H      -0.228820000000000     -0.267930000000000     11.679500000000001
H      -0.898220000000000      1.401220000000000     11.732860000000001
C      -2.387420000000000     -0.148210000000000     11.737850000000000
H       0.447760000000000      1.114580000000000      8.228330000000000
H      -3.188790000000000      0.540440000000000     11.394330000000000
H      -2.566940000000000     -1.159650000000000     11.316129999999999
H      -2.421860000000000     -0.206910000000000     12.845950000000000
C       1.088430000000000     -2.211050000000000     13.175599999999999
C       1.284450000000000     -2.631230000000000     11.882130000000000
C       2.462430000000000     -2.061720000000000     11.430240000000000
C       2.955040000000000     -1.298610000000000     12.418320000000000
N       2.149960000000000     -1.372210000000000     13.563639999999999
C       4.204380000000000     -0.454330000000000     12.347470000000000
N       4.023850000000000      0.708080000000000     11.463139999999999
C       3.755050000000000      2.026760000000000     12.090420000000000
H       0.618460000000000     -3.277150000000000     11.320360000000001
H       0.250550000000000     -2.465350000000000     13.804819999999999
H       2.887250000000000     -2.199030000000000     10.452040000000000
H       5.037620000000000     -1.077870000000000     11.960100000000001
H       4.475700000000000     -0.148620000000000     13.371650000000001
C       4.948100000000000      2.470890000000000     12.959540000000001
C       3.584870000000000      3.057770000000000     10.957290000000000
C       2.457160000000000      2.015300000000000     12.925920000000000
H       5.885910000000000      2.435190000000000     12.365500000000001
H       4.797290000000000      3.510830000000000     13.321270000000000
H       5.070580000000000      1.838590000000000     13.859240000000000
H       2.706700000000000      2.807460000000000     10.327620000000000
H       3.422650000000000      4.080640000000000     11.363890000000000
H       4.485280000000000      3.079630000000000     10.306319999999999
H       1.575260000000000      1.798350000000000     12.286479999999999
H       2.502570000000000      1.259830000000000     13.733250000000000
H       2.295390000000000      3.006330000000000     13.404380000000000
