70

Na     -0.000360000000000     -0.976300000000000     -1.822930000000000
C      -1.159030000000000      0.634010000000000      0.972560000000000
C       1.158220000000000      0.634690000000000      0.972050000000000
O      -0.000460000000000      0.234980000000000      0.276820000000000
C      -2.375040000000000      0.179880000000000      0.173850000000000
C       2.374210000000000      0.177800000000000      0.174610000000000
H      -1.205760000000000      0.152630000000000      1.975770000000000
H      -1.204260000000000      1.742890000000000      1.066710000000000
H       1.203910000000000      1.743710000000000      1.064210000000000
H       1.204540000000000      0.155450000000000      1.976290000000000
H       2.361190000000000      0.638370000000000     -0.836840000000000
H       3.309840000000000      0.476540000000000      0.691970000000000
H       2.362600000000000     -0.927880000000000      0.063380000000000
H      -2.363300000000000     -0.924360000000000      0.058200000000000
H      -3.310680000000000      0.476320000000000      0.692340000000000
H      -2.361870000000000      0.642560000000000     -0.836480000000000
Mg     -1.020490000000000     -6.372500000000000      4.325910000000000
C      -1.921010000000000     -4.100600000000000      1.473740000000000
C      -2.567390000000000     -3.080740000000000      3.438540000000000
O      -2.501980000000000     -4.311240000000000      2.745910000000000
C      -2.230110000000000     -5.282540000000000      0.567610000000000
C      -3.107420000000000     -3.312000000000000      4.843810000000000
H      -2.335500000000000     -3.199480000000000      0.971730000000000
H      -0.820100000000000     -3.997880000000000      1.565780000000000
H      -1.564580000000000     -2.611610000000000      3.520880000000000
H      -3.254810000000000     -2.378130000000000      2.921720000000000
H      -2.437230000000000     -3.985590000000000      5.415220000000000
H      -3.177320000000000     -2.343260000000000      5.382280000000000
H      -4.118050000000000     -3.767690000000000      4.791190000000000
H      -3.326430000000000     -5.407900000000000      0.459710000000000
H      -1.772700000000000     -5.121990000000000     -0.430660000000000
H      -1.819300000000000     -6.212890000000000      0.983950000000000
H      -3.894700000000000     -6.150950000000000      5.678390000000000
C      -2.381690000000000     -7.254050000000000      6.843000000000000
C      -3.109300000000000     -6.920160000000000      5.546250000000000
C      -1.724990000000000     -6.013090000000000      7.463480000000000
H      -3.124560000000000     -7.681570000000000      7.546030000000000
H      -1.595570000000000     -8.014080000000000      6.635110000000000
H      -0.934540000000000     -5.615970000000000      6.788540000000000
H      -2.489020000000000     -5.221910000000000      7.618790000000000
C      -1.100480000000000     -6.350720000000000      8.815490000000000
H      -3.512070000000000     -7.831450000000000      5.059150000000000
H      -1.882110000000000     -6.730130000000000      9.508179999999999
H      -0.310600000000000     -7.123080000000000      8.700430000000001
H      -0.647700000000000     -5.440040000000000      9.261630000000000
C       0.440250000000000     -3.600670000000000      4.762460000000000
C       1.483030000000000     -3.006960000000000      4.073510000000000
C       1.862700000000000     -3.896440000000000      3.078950000000000
C       1.028800000000000     -4.984620000000000      3.192470000000000
N       0.171210000000000     -4.787100000000000      4.202570000000000
C       1.032200000000000     -6.260550000000000      2.369010000000000
N      -0.209600000000000     -7.037300000000000      2.590500000000000
C      -0.247530000000000     -8.463979999999999      2.210830000000000
H       1.916780000000000     -2.038440000000000      4.275020000000000
H      -0.094650000000000     -3.179470000000000      5.606630000000000
H       2.648860000000000     -3.762760000000000      2.349190000000000
H       1.096150000000000     -6.004090000000000      1.292490000000000
H       1.929140000000000     -6.833360000000000      2.675040000000000
C       0.600460000000000     -9.315210000000000      3.172610000000000
C      -1.707910000000000     -8.954639999999999      2.288810000000000
C       0.247990000000000     -8.637950000000000      0.761350000000000
H       0.212460000000000     -9.233070000000000      4.210820000000000
H       0.563620000000000    -10.384740000000001      2.869560000000000
H       1.662860000000000     -9.003230000000000      3.165710000000000
H      -2.365260000000000     -8.380699999999999      1.602650000000000
H      -1.779040000000000    -10.028370000000001      2.005910000000000
H      -2.104840000000000     -8.844410000000000      3.319450000000000
H      -0.358010000000000     -8.010930000000000      0.071410000000000
H       1.311120000000000     -8.334600000000000      0.666860000000000
H       0.164900000000000     -9.696840000000000      0.437810000000000
