70

Na     -0.120970000000000      1.973220000000000     -0.912060000000000
C      -0.224460000000000     -1.430220000000000     -0.518540000000000
C       0.355620000000000     -0.429100000000000      1.489260000000000
O       0.019310000000000     -0.208050000000000      0.138620000000000
C      -0.582590000000000     -1.130120000000000     -1.969170000000000
C       0.604170000000000      0.924440000000000      2.144980000000000
H       0.684880000000000     -2.073390000000000     -0.513080000000000
H      -1.086280000000000     -1.961850000000000     -0.057510000000000
H      -0.479740000000000     -0.927460000000000      2.031730000000000
H       1.289460000000000     -1.029920000000000      1.573380000000000
H      -0.310220000000000      1.552820000000000      2.079820000000000
H       0.873320000000000      0.792640000000000      3.213770000000000
H       1.435110000000000      1.451110000000000      1.627830000000000
H       0.254650000000000     -0.593750000000000     -2.465390000000000
H      -0.781670000000000     -2.073020000000000     -2.520330000000000
H      -1.490700000000000     -0.490900000000000     -2.012060000000000
Mg     -0.932680000000000     -6.464650000000000      2.737010000000000
C      -3.998790000000000     -6.034800000000000      4.862910000000000
C      -4.636620000000000     -6.983950000000000      2.860110000000000
O      -3.798100000000000     -6.018740000000000      3.462800000000000
C      -3.454240000000000     -4.751890000000000      5.472480000000000
C      -4.362800000000000     -7.038840000000000      1.362970000000000
H      -5.078390000000000     -6.080820000000000      5.128730000000000
H      -3.470690000000000     -6.898560000000000      5.316960000000000
H      -4.458650000000000     -7.993590000000000      3.286040000000000
H      -5.704690000000000     -6.714070000000000      2.999770000000000
H      -3.312830000000000     -7.336410000000000      1.167450000000000
H      -5.035500000000000     -7.783170000000000      0.886630000000000
H      -4.547670000000000     -6.043900000000000      0.907350000000000
H      -3.964640000000000     -3.870880000000000      5.033740000000000
H      -3.606180000000000     -4.762480000000000      6.571730000000000
H      -2.376810000000000     -4.653570000000000      5.279470000000000
H      -2.276120000000000     -5.140530000000000      0.170150000000000
C      -0.275270000000000     -6.011380000000000     -0.149330000000000
C      -1.276510000000000     -5.181910000000000      0.644460000000000
C      -0.758750000000000     -7.455750000000000     -0.339110000000000
H      -0.138440000000000     -5.522920000000000     -1.135080000000000
H       0.697810000000000     -6.023460000000000      0.390870000000000
H      -0.838200000000000     -7.968810000000000      0.645110000000000
H      -1.759500000000000     -7.456670000000000     -0.821080000000000
C       0.205120000000000     -8.236340000000000     -1.229640000000000
H      -0.884480000000000     -4.168230000000000      0.858820000000000
H       0.279820000000000     -7.747200000000000     -2.224500000000000
H       1.215010000000000     -8.280980000000000     -0.769390000000000
H      -0.167800000000000     -9.272390000000000     -1.374420000000000
C      -2.267210000000000     -9.303970000000000      3.140310000000000
C      -2.373310000000000    -10.104229999999999      4.263950000000000
C      -1.721910000000000     -9.438340000000000      5.292000000000000
C      -1.260770000000000     -8.257310000000000      4.758450000000000
N      -1.606090000000000     -8.185810000000000      3.466050000000000
C      -0.453520000000000     -7.168970000000000      5.443950000000000
N      -0.430040000000000     -5.932890000000000      4.627590000000000
C       0.595650000000000     -4.905730000000000      4.899640000000000
H      -2.867360000000000    -11.062880000000000      4.325060000000000
H      -2.665270000000000     -9.522860000000000      2.155550000000000
H      -1.606030000000000     -9.770049999999999      6.314260000000000
H      -0.913310000000000     -6.931310000000000      6.424210000000000
H       0.565240000000000     -7.576450000000000      5.593350000000000
C       1.987120000000000     -5.379410000000000      4.443550000000000
C       0.235350000000000     -3.629240000000000      4.110870000000000
C       0.612150000000000     -4.562060000000000      6.402500000000000
H       1.991960000000000     -5.577940000000000      3.350090000000000
H       2.746890000000000     -4.596540000000000      4.660020000000000
H       2.298540000000000     -6.301200000000000      4.972280000000000
H      -0.758430000000000     -3.235310000000000      4.409970000000000
H       0.985260000000000     -2.827600000000000      4.292540000000000
H       0.210980000000000     -3.834210000000000      3.020330000000000
H      -0.398040000000000     -4.234220000000000      6.731750000000000
H       0.907730000000000     -5.444030000000000      7.007610000000000
H       1.333230000000000     -3.745030000000000      6.615100000000000
