100

Na      0.364790000000000     -0.086010000000000      0.006720000000000
C      -0.378980000000000      0.140930000000000      3.045930000000000
C       1.868770000000000     -0.530370000000000      2.879730000000000
O       0.623260000000000     -0.423650000000000      2.225300000000000
C      -0.406960000000000      1.662160000000000      2.925150000000000
C       1.991420000000000     -1.887080000000000      3.561590000000000
H      -1.355740000000000     -0.246430000000000      2.689640000000000
H      -0.290140000000000     -0.175320000000000      4.107430000000000
H       2.664040000000000     -0.452570000000000      2.106640000000000
H       2.053720000000000      0.299920000000000      3.596660000000000
H       1.857540000000000     -2.701310000000000      2.817500000000000
H       2.995740000000000     -1.982450000000000      4.023280000000000
H       1.220780000000000     -1.991210000000000      4.352480000000000
H      -0.546480000000000      1.964680000000000      1.866720000000000
H      -1.254770000000000      2.060870000000000      3.521160000000000
H       0.535050000000000      2.104720000000000      3.307550000000000
C       1.043690000000000     -0.517760000000000     -3.082770000000000
C       1.889930000000000     -2.294610000000000     -1.811660000000000
O       1.410200000000000     -0.970080000000000     -1.797520000000000
C      -0.390500000000000     -0.912230000000000     -3.430550000000000
C       2.107150000000000     -2.737590000000000     -0.367880000000000
H       1.086600000000000      0.591790000000000     -3.059290000000000
H       1.761410000000000     -0.840500000000000     -3.868420000000000
H       1.156300000000000     -2.991390000000000     -2.270540000000000
H       2.862880000000000     -2.347460000000000     -2.345770000000000
H       1.151200000000000     -2.696160000000000      0.197440000000000
H       2.493150000000000     -3.777670000000000     -0.338160000000000
H       2.840490000000000     -2.068040000000000      0.129580000000000
H      -1.088080000000000     -0.561110000000000     -2.642500000000000
H      -0.679250000000000     -0.441990000000000     -4.393810000000000
H      -0.485890000000000     -2.011400000000000     -3.535050000000000
C       1.652180000000000      2.661530000000000     -0.877070000000000
C      -0.671270000000000      2.996650000000000     -0.992430000000000
O       0.372330000000000      2.069850000000000     -0.781070000000000
C       2.133960000000000      3.135870000000000      0.489530000000000
C      -1.069870000000000      3.026010000000000     -2.463190000000000
H       2.356280000000000      1.881710000000000     -1.238590000000000
H       1.691090000000000      3.486510000000000     -1.623070000000000
H      -1.546300000000000      2.655880000000000     -0.400730000000000
H      -0.427090000000000      4.016760000000000     -0.620510000000000
H      -1.357660000000000      2.008610000000000     -2.803270000000000
H      -1.936360000000000      3.706060000000000     -2.598970000000000
H      -0.226070000000000      3.388720000000000     -3.085000000000000
H       2.152520000000000      2.288260000000000      1.206980000000000
H       3.161850000000000      3.544750000000000      0.396630000000000
H       1.465770000000000      3.928800000000000      0.882780000000000
C      -3.052220000000000     -0.118990000000000     -0.388090000000000
C      -2.074580000000000     -2.071190000000000      0.482030000000000
O      -1.858250000000000     -0.751010000000000      0.024140000000000
C      -3.700900000000000      0.627400000000000      0.773000000000000
C      -1.954880000000000     -3.071700000000000     -0.661960000000000
H      -2.784850000000000      0.621230000000000     -1.170830000000000
H      -3.771000000000000     -0.822540000000000     -0.863180000000000
H      -1.282050000000000     -2.303550000000000      1.225290000000000
H      -3.043660000000000     -2.188940000000000      1.015470000000000
H      -0.962000000000000     -2.981030000000000     -1.144960000000000
H      -2.063520000000000     -4.103030000000000     -0.265780000000000
H      -2.742250000000000     -2.893800000000000     -1.422040000000000
H      -2.989640000000000      1.362370000000000      1.204870000000000
H      -4.596830000000000      1.171510000000000      0.407700000000000
H      -4.012010000000000     -0.082210000000000      1.566510000000000
Mg      0.905820000000000      7.659240000000000     -2.558080000000000
H      -1.444040000000000      9.531300000000000     -2.354550000000000
C      -1.686920000000000      8.341860000000000     -0.515440000000000
C      -1.386870000000000      8.481740000000000     -2.000950000000000
C      -0.655920000000000      9.034760000000000      0.392420000000000
H      -2.702170000000000      8.745350000000000     -0.324190000000000
H      -1.680430000000000      7.259320000000000     -0.262500000000000
H      -0.981420000000000      8.886030000000000      1.445120000000000
H       0.342110000000000      8.561890000000000      0.273280000000000
C      -0.520290000000000     10.534150000000000      0.134170000000000
H      -2.042480000000000      7.831590000000000     -2.615490000000000
H      -0.098880000000000     10.719900000000001     -0.875730000000000
H      -1.506760000000000     11.034039999999999      0.225320000000000
H       0.176270000000000     10.975510000000000      0.878630000000000
C       2.566250000000000      6.645730000000000     -0.047400000000000
C       3.925210000000000      6.435750000000000      0.124630000000000
C       4.538200000000000      6.775180000000000     -1.071240000000000
C       3.534790000000000      7.190940000000000     -1.914080000000000
N       2.350640000000000      7.101440000000000     -1.289450000000000
C       3.664710000000000      7.665090000000000     -3.347490000000000
N       2.392770000000000      8.263870000000001     -3.800070000000000
C       2.271160000000000      8.838170000000000     -5.152540000000000
H       4.414750000000000      6.070700000000000      1.016160000000000
H       1.791960000000000      6.468860000000000      0.689730000000000
H       5.594500000000000      6.734170000000000     -1.300530000000000
H       3.929420000000000      6.783250000000000     -3.966890000000000
H       4.465730000000000      8.425039999999999     -3.393780000000000
C       2.641390000000000      7.802740000000000     -6.230200000000000
C       0.814640000000000      9.287290000000000     -5.373810000000000
C       3.185540000000000     10.073219999999999     -5.266910000000000
H       1.988040000000000      6.907840000000000     -6.148520000000000
H       2.519510000000000      8.238910000000001     -7.245340000000000
H       3.699150000000000      7.483860000000000     -6.130390000000000
H       0.508480000000000     10.029510000000000     -4.605410000000000
H       0.700150000000000      9.759550000000001     -6.375560000000000
H       0.120860000000000      8.421279999999999     -5.318690000000000
H       2.908250000000000     10.826689999999999     -4.497070000000000
H       4.250450000000000      9.802470000000000     -5.120760000000000
H       3.095740000000000     10.541490000000000     -6.269530000000000
