100

Na     -0.152920000000000     -0.171670000000000      0.283140000000000
C       2.348300000000000      1.203520000000000      1.584270000000000
C       1.111400000000000      0.151500000000000      3.285490000000000
O       1.103140000000000      0.656710000000000      1.968040000000000
C       3.254550000000000      0.144230000000000      0.962920000000000
C       0.675080000000000      1.231720000000000      4.266990000000000
H       2.147530000000000      1.974570000000000      0.812090000000000
H       2.859750000000000      1.728670000000000      2.419320000000000
H       0.377510000000000     -0.682450000000000      3.331860000000000
H       2.092590000000000     -0.285120000000000      3.575680000000000
H      -0.330370000000000      1.614980000000000      3.989980000000000
H       0.629510000000000      0.807860000000000      5.291280000000000
H       1.396920000000000      2.073810000000000      4.258090000000000
H       2.751890000000000     -0.337870000000000      0.099110000000000
H       4.188300000000000      0.626330000000000      0.604220000000000
H       3.519800000000000     -0.632960000000000      1.707990000000000
C      -2.800560000000000     -1.387450000000000     -1.022700000000000
C      -3.316960000000000     -0.284430000000000      0.978690000000000
O      -2.305240000000000     -0.871530000000000      0.193560000000000
C      -2.860000000000000     -0.313230000000000     -2.107150000000000
C      -2.659070000000000      0.376430000000000      2.186290000000000
H      -2.080940000000000     -2.162410000000000     -1.361910000000000
H      -3.778160000000000     -1.902950000000000     -0.899830000000000
H      -3.863590000000000      0.504830000000000      0.419600000000000
H      -4.022330000000000     -1.061420000000000      1.343990000000000
H      -1.944450000000000      1.161030000000000      1.856310000000000
H      -3.427810000000000      0.845510000000000      2.834860000000000
H      -2.102920000000000     -0.380760000000000      2.778690000000000
H      -1.868530000000000      0.170780000000000     -2.224190000000000
H      -3.142160000000000     -0.780250000000000     -3.073930000000000
H      -3.613640000000000      0.460450000000000     -1.858930000000000
C       0.608710000000000     -3.179880000000000     -0.317990000000000
C       1.454300000000000     -1.946900000000000     -2.131760000000000
O       0.685840000000000     -1.917040000000000     -0.947940000000000
C       1.726290000000000     -3.345260000000000      0.706750000000000
C       0.565690000000000     -2.218860000000000     -3.339980000000000
H      -0.362170000000000     -3.227860000000000      0.220210000000000
H       0.604010000000000     -4.023560000000000     -1.043520000000000
H       1.915890000000000     -0.945350000000000     -2.256610000000000
H       2.298630000000000     -2.669930000000000     -2.081780000000000
H      -0.241220000000000     -1.458430000000000     -3.402250000000000
H       1.174660000000000     -2.169600000000000     -4.266570000000000
H       0.106990000000000     -3.225840000000000     -3.263740000000000
H       1.678060000000000     -2.532210000000000      1.462230000000000
H       1.610560000000000     -4.320050000000000      1.225800000000000
H       2.717430000000000     -3.321230000000000      0.209040000000000
C       0.595550000000000      1.921700000000000     -2.343810000000000
C      -0.355170000000000      2.920130000000000     -0.440490000000000
O       0.111760000000000      1.723640000000000     -1.031780000000000
C       2.088030000000000      2.234840000000000     -2.330650000000000
C      -1.838470000000000      3.125560000000000     -0.725350000000000
H       0.444130000000000      0.973810000000000     -2.901490000000000
H       0.028240000000000      2.700120000000000     -2.900190000000000
H      -0.227480000000000      2.823280000000000      0.659020000000000
H       0.237250000000000      3.811520000000000     -0.744510000000000
H      -2.419900000000000      2.253970000000000     -0.365330000000000
H      -2.196350000000000      4.031280000000000     -0.194050000000000
H      -2.014770000000000      3.252440000000000     -1.812600000000000
H       2.647100000000000      1.424450000000000     -1.817070000000000
H       2.457460000000000      2.316210000000000     -3.374180000000000
H       2.279930000000000      3.193660000000000     -1.807290000000000
Mg      1.715860000000000      7.229580000000000     -1.252130000000000
H       3.067560000000000      9.106000000000000      0.680100000000000
C       4.781940000000000      7.916870000000000     -0.028860000000000
C       3.345210000000000      8.056520000000001      0.453660000000000
C       5.052780000000000      8.609340000000000     -1.375820000000000
H       5.455120000000000      8.320410000000001      0.754770000000000
H       4.998050000000000      6.834450000000000     -0.160730000000000
H       6.127220000000000      8.460520000000001     -1.620200000000000
H       4.450590000000000      8.136270000000000     -2.180530000000000
C       4.761330000000000     10.108639999999999     -1.364300000000000
H       3.140870000000000      7.406430000000000      1.328820000000000
H       3.676020000000000     10.294280000000001     -1.224290000000000
H       5.333510000000000     10.608470000000001     -0.555550000000000
H       5.057790000000000     10.549849999999999     -2.339810000000000
C       3.059500000000000      6.213020000000000     -3.945390000000000
C       2.528970000000000      6.005210000000000     -5.208690000000000
C       1.187310000000000      6.347060000000000     -5.141700000000000
C       0.959350000000000      6.762160000000000     -3.851050000000000
N       2.092170000000000      6.670660000000000     -3.137680000000000
C      -0.346590000000000      7.237330000000000     -3.246930000000000
N      -0.102070000000000      7.837160000000000     -1.919700000000000
C      -1.212620000000000      8.411770000000001     -1.138430000000000
H       3.055930000000000      5.640820000000000     -6.078910000000000
H       4.084890000000000      6.034290000000000     -3.643520000000000
H       0.460840000000000      6.308150000000000     -5.942160000000000
H      -1.015270000000000      6.355340000000000     -3.165630000000000
H      -0.787100000000000      7.997100000000000     -3.917860000000000
C      -2.330730000000000      7.376540000000000     -0.919940000000000
C      -0.676140000000000      8.860900000000001      0.233620000000000
C      -1.768860000000000      9.646730000000000     -1.873250000000000
H      -1.931500000000000      6.484220000000000     -0.393620000000000
H      -3.149280000000000      7.812500000000000     -0.307170000000000
H      -2.772800000000000      7.055720000000000     -1.885430000000000
H       0.142420000000000      9.603090000000000      0.114640000000000
H      -1.486470000000000      9.333170000000001      0.833600000000000
H      -0.281630000000000      7.994790000000000      0.806890000000000
H      -0.963550000000000     10.400250000000000     -2.017960000000000
H      -2.174730000000000      9.375970000000001     -2.868560000000000
H      -2.592240000000000     10.115080000000001     -1.294160000000000
