70

Na     -0.123920000000000      1.982360000000000      0.915800000000000
C      -0.225350000000000     -1.431170000000000      0.517390000000000
C       0.353350000000000     -0.429670000000000     -1.489140000000000
O       0.018190000000000     -0.208330000000000     -0.138540000000000
C      -0.581180000000000     -1.131510000000000      1.968510000000000
C       0.606460000000000      0.923100000000000     -2.144190000000000
H      -1.085200000000000     -1.966590000000000      0.054390000000000
H       0.685050000000000     -2.071630000000000      0.512820000000000
H       1.284710000000000     -1.034510000000000     -1.574230000000000
H      -0.484710000000000     -0.924030000000000     -2.030850000000000
H       1.439660000000000      1.446370000000000     -1.627320000000000
H       0.874310000000000      0.790410000000000     -3.213170000000000
H      -0.305820000000000      1.554450000000000     -2.078160000000000
H      -1.487630000000000     -0.490170000000000      2.013710000000000
H      -0.780670000000000     -2.074520000000000      2.519090000000000
H       0.258490000000000     -0.597440000000000      2.463340000000000
Mg      1.038900000000000     -7.863500000000000     -4.037570000000000
C       1.284040000000000     -4.887690000000000     -2.637460000000000
C      -0.867890000000000     -5.833930000000000     -2.188720000000000
O       0.314830000000000     -5.870330000000000     -2.958040000000000
C       1.621090000000000     -4.759290000000000     -1.150490000000000
C      -1.704540000000000     -4.594970000000000     -2.468390000000000
H       2.218420000000000     -5.209370000000000     -3.138060000000000
H       1.013730000000000     -3.907250000000000     -3.079050000000000
H      -1.468840000000000     -6.714170000000000     -2.487490000000000
H      -0.672960000000000     -5.983060000000000     -1.108440000000000
H      -2.672410000000000     -4.683760000000000     -1.933030000000000
H      -1.898470000000000     -4.505110000000000     -3.557320000000000
H      -1.177400000000000     -3.688480000000000     -2.112050000000000
H       1.876600000000000     -5.742730000000000     -0.722200000000000
H       0.771840000000000     -4.319050000000000     -0.591530000000000
H       2.501510000000000     -4.097380000000000     -1.027850000000000
H      -0.272530000000000     -7.121970000000000     -6.239110000000000
C      -1.193960000000000     -9.049750000000000     -5.744330000000000
C       0.029840000000000     -8.129110000000001     -5.888260000000000
C      -2.232140000000000     -8.608219999999999     -4.693560000000000
H      -1.690360000000000     -9.127990000000000     -6.733850000000000
H      -0.837750000000000    -10.059710000000001     -5.448340000000000
H      -3.061940000000000     -9.350709999999999     -4.689890000000000
H      -1.773500000000000     -8.620950000000001     -3.684340000000000
C      -2.838630000000000     -7.231900000000000     -4.966510000000000
H       0.752890000000000     -8.565180000000000     -6.604050000000000
H      -2.057060000000000     -6.448860000000000     -4.931410000000000
H      -3.333100000000000     -7.212670000000000     -5.959650000000000
H      -3.596990000000000     -6.996420000000000     -4.187660000000000
C      -0.032300000000000     -8.682890000000000     -0.336490000000000
C      -0.159230000000000     -9.584610000000000     -1.366420000000000
C       1.022850000000000     -9.565400000000000     -2.086710000000000
C       1.833380000000000     -8.658569999999999     -1.525300000000000
N       1.236120000000000     -8.082430000000000     -0.391500000000000
C       3.189730000000000     -8.256330000000000     -2.046620000000000
N       3.038750000000000     -7.718100000000000     -3.402910000000000
C       4.255190000000000     -7.391020000000000     -4.187000000000000
H      -1.039610000000000    -10.178250000000000     -1.578460000000000
H      -0.787060000000000     -8.448520000000000      0.399200000000000
H       1.232510000000000    -10.140090000000001     -2.978250000000000
H       3.854320000000000     -9.139840000000000     -2.031550000000000
H       3.598390000000000     -7.468740000000000     -1.378060000000000
C       5.043080000000000     -8.670740000000000     -4.528960000000000
C       3.829370000000000     -6.708020000000000     -5.496710000000000
C       5.170880000000000     -6.419050000000000     -3.404490000000000
H       4.412450000000000     -9.370050000000001     -5.116370000000000
H       5.949120000000000     -8.422840000000001     -5.124790000000000
H       5.392930000000000     -9.189980000000000     -3.614080000000000
H       3.289190000000000     -5.759920000000000     -5.291050000000000
H       4.719190000000000     -6.469170000000000     -6.122090000000000
H       3.161390000000000     -7.373890000000000     -6.082130000000000
H       4.627230000000000     -5.485140000000000     -3.147230000000000
H       5.543290000000000     -6.877990000000000     -2.465100000000000
H       6.061720000000000     -6.141500000000000     -4.010110000000000
