78

Mg       -1.386052   -0.200951    0.768343
H       -3.982285    0.509878    1.121619
C       -3.194036    2.487543    0.753215
C       -3.047430    1.065532    1.309771
C       -3.549507    2.497241   -0.734687
H       -3.962351    3.090096    1.277980
H       -2.253528    3.044782    0.879383
H       -2.909144    1.769488   -1.246121
H       -4.576038    2.126138   -0.865933
C       -3.393219    3.865793   -1.395854
H       -2.973133    1.122076    2.411644
H       -4.008327    4.621343   -0.889784
H       -2.349672    4.195794   -1.338680
H       -3.684821    3.847510   -2.453109
C        2.361986    3.774396   -0.321137
C        1.340364    3.466806   -1.212095
C        0.408639    2.700285   -0.456364
C        0.947980    2.623567    0.842461
N        2.140537    3.259024    0.923940
C        0.382397    1.768300    1.941171
N        0.558602    0.313171    1.640611
C        1.457137   -0.349031    2.604253
H        1.262116    3.756892   -2.254147
H        3.276924    4.323072   -0.528257
H       -0.591306    2.394328   -0.740805
H       -0.686722    1.993879    2.065678
H        0.856166    2.060736    2.884127
C        0.816806   -0.436888    4.006880
C        1.768695   -1.774177    2.126042
C        2.827267    0.364110    2.718105
H       -0.131715   -0.981740    3.955610
H        1.475415   -0.948133    4.722535
H        0.605556    0.562036    4.402370
H        2.254333   -1.748879    1.143878
H        2.462171   -2.265268    2.820089
H        0.874755   -2.394937    2.050373
H        3.310834    0.404609    1.736413
H        2.740525    1.396722    3.062273
H        3.484542   -0.177622    3.412299
Mg        1.287608    0.305629   -0.393126
H        3.291328    0.445351   -2.226139
C        4.372162   -0.850933   -0.898652
C        3.307490    0.230587   -1.140763
C        4.205812   -2.112023   -1.759822
H        5.394436   -0.474175   -1.091690
H        4.378237   -1.160392    0.160111
H        4.154827   -1.805125   -2.815017
H        5.102677   -2.744576   -1.666828
C        2.971642   -2.943663   -1.423654
H        3.667445    1.169744   -0.687614
H        3.023197   -3.323958   -0.396610
H        2.067848   -2.338124   -1.505390
H        2.861924   -3.804146   -2.094832
C       -3.704031   -3.199877    0.748740
C       -3.138737   -2.829239    1.962635
C       -1.806125   -2.456095    1.652712
C       -1.668310   -2.633359    0.254031
N       -2.829909   -3.083609   -0.285865
C       -0.469481   -2.280454   -0.606468
N       -0.399459   -0.856727   -1.074765
C       -0.779609   -0.715445   -2.498834
H       -3.608476   -2.825547    2.939757
H       -4.721537   -3.536674    0.566568
H       -1.028399   -2.208845    2.365147
H       -0.465556   -2.978588   -1.449736
H        0.436222   -2.509972   -0.035233
C       -2.228958   -1.157141   -2.776286
C       -0.657766    0.752814   -2.926748
C        0.180216   -1.497522   -3.429406
H       -2.921298   -0.550135   -2.182259
H       -2.477501   -1.029699   -3.839820
H       -2.406095   -2.194655   -2.484808
H        0.356515    1.143072   -2.786545
H       -0.907938    0.852694   -3.990149
H       -1.343635    1.388743   -2.365175
H        1.207959   -1.147629   -3.278976
H        0.157966   -2.575825   -3.247829
H       -0.089818   -1.340257   -4.481898
