95
speciation134.ct
Mg        -1.34040       -5.58407        0.99286
C         -0.96362       -7.22935       -1.23811
C         -1.83468       -8.39969        0.64746
O         -1.02865       -7.32338        0.18282
C         -2.31869       -7.11727       -1.94848
C         -1.26370       -9.78142        0.27551
H         -0.39372       -6.31345       -1.48261
H         -0.35884       -8.05885       -1.66453
H         -1.84716       -8.35665        1.75310
H         -2.89026       -8.30520        0.32020
H         -0.23310       -9.89685        0.67320
H         -1.90128      -10.58144        0.70901
H         -1.24601       -9.94184       -0.82305
H         -2.89978       -6.27077       -1.52975
H         -2.15193       -6.94071       -3.03237
H         -2.90322       -8.05693       -1.86379
H         -1.80635        1.56019        1.00545
C         -3.40807        2.88302        1.64238
C         -2.81876        1.85782        0.65821
C         -3.51889        2.32931        3.06296
H         -2.74974        3.77897        1.66956
H         -4.41042        3.19254        1.28113
H         -4.16038        1.45738        3.03978
H         -2.52035        2.02837        3.44633
C         -4.16634        3.31534        4.02851
H         -2.70463        2.35908       -0.32605
H         -3.53622        4.22024        4.14372
H         -5.17477        3.60597        3.66224
H         -4.28607        2.82955        5.02175
C          1.06524       -4.34450       -0.19637
C          1.65812       -3.16700       -0.60377
C          0.77431       -2.15522       -0.29753
C         -0.33028       -2.75994        0.27651
N         -0.14923       -4.10447        0.34196
C         -1.57465       -2.02705        0.72610
N         -2.24928       -1.28992       -0.37500
C         -2.78146       -2.10536       -1.49874
H          2.62584       -3.06271       -1.08326
H          1.49852       -5.32922       -0.30825
H          0.91732       -1.10130       -0.49339
H         -2.27620       -2.72933        1.21164
H         -1.26309       -1.29457        1.50140
C         -3.78989       -3.15042       -0.98307
C         -3.48864       -1.12222       -2.41765
C         -1.70099       -2.80313       -2.36342
H         -4.56438       -2.66356       -0.35281
H         -4.28412       -3.67291       -1.82830
H         -3.27581       -3.92598       -0.37711
H         -2.77312       -0.36434       -2.80814
H         -3.97553       -1.63527       -3.27437
H         -4.24596       -0.60891       -1.82040
H         -0.93013       -2.07666       -2.70082
H         -1.21624       -3.65175       -1.85744
H         -2.16601       -3.25717       -3.26487
Mg        -3.83924        0.03887        0.12317
C         -1.69960       -5.18918        3.75769
C         -3.75888       -5.37341        2.53536
O         -2.37699       -5.04251        2.50870
C         -2.01674       -6.46466        4.55726
C         -4.58111       -4.32004        3.27725
H         -0.61075       -5.20748        3.53787
H         -1.86367       -4.28912        4.39022
H         -4.13668       -5.40058        1.49242
H         -3.93711       -6.38514        2.93525
H         -4.60305       -3.40878        2.66194
H         -5.62852       -4.65515        3.40347
H         -4.16843       -4.09546        4.28563
H         -1.82753       -7.36446        3.93766
H         -1.37263       -6.51140        5.46094
H         -3.06539       -6.46840        4.92140
C         -3.73654       -1.23958        3.48014
C         -4.69328       -1.02993        4.44041
C         -5.81866       -0.53748        3.80200
C         -5.55578       -0.46018        2.49272
N         -4.24957       -0.90802        2.21053
C         -6.49861        0.11919        1.50238
N         -5.95411        0.11948        0.11567
C         -6.84950        0.86334       -0.84915
H         -4.56734       -1.20339        5.49632
H         -2.73356       -1.61039        3.64724
H         -6.74669       -0.23499        4.27925
H         -6.68576        1.14750        1.83778
H         -7.43679       -0.47601        1.54192
C         -6.85143        2.37978       -0.55033
C         -6.37128        0.68816       -2.30283
C         -8.31189        0.33214       -0.81512
H         -5.81585        2.77329       -0.58329
H         -7.45704        2.92763       -1.30526
H         -7.30093        2.62034        0.43223
H         -6.38249       -0.37928       -2.60317
H         -7.05227        1.22912       -3.00208
H         -5.36541        1.13137       -2.45104
H         -8.33878       -0.75386       -1.05669
H         -8.81027        0.49660        0.15884
H         -8.94189        0.85990       -1.56876
