95
speciation113.ct
Mg         0.97079       -0.01377       -0.29782
C         -1.06895        0.55759       -2.51559
C          0.05305       -1.53475       -2.66034
O          0.01938       -0.25405       -2.04845
C         -2.47197       -0.07292       -2.38168
C          0.34445       -1.45870       -4.16309
H         -1.01438        1.50006       -1.98776
H         -0.90081        0.90107       -3.54810
H          0.86066       -2.12201       -2.19279
H         -0.87625       -2.11266       -2.45889
H          1.31223       -0.94364       -4.33398
H          0.38891       -2.48136       -4.58903
H         -0.45640       -0.91596       -4.70904
H         -2.65555       -0.48522       -1.37136
H         -3.25353        0.68917       -2.59882
H         -2.61618       -0.88197       -3.13601
H          0.75478       -2.58343        0.47314
C         -0.72976       -2.29601        1.97494
C          0.44626       -1.73898        1.11149
C         -1.97987       -2.66756        1.15497
H         -0.37810       -3.20753        2.50818
H         -0.95261       -1.58052        2.77451
H         -2.30378       -1.80503        0.53824
H         -1.69741       -3.49746        0.46070
C         -3.16427       -3.12923        2.00455
H          1.26175       -1.54518        1.83813
H         -2.88651       -3.96049        2.68198
H         -3.57165       -2.30429        2.60792
H         -3.99263       -3.46220        1.34486
C         -2.81303        0.22085        3.36140
C         -2.94095        1.49317        3.85456
C         -2.39613        2.34961        2.90989
C         -1.91082        1.61838        1.88522
N         -2.18181        0.26119        2.09676
C         -1.14773        2.14194        0.67210
N          0.35380        1.87736        0.57148
C          0.98513        2.31264        1.93419
H         -3.36579        1.71788        4.82505
H         -3.10683       -0.67684        3.88405
H         -2.32596        3.41757        3.03287
H         -1.33789        3.22678        0.60589
H         -1.71813        1.76260       -0.16535
C          0.73728        1.34529        3.14892
C          2.50590        2.32318        1.89890
C          0.61344        3.79631        2.37414
H          1.14281        0.33378        2.96018
H          1.25492        1.73189        4.05568
H         -0.26517        1.22785        3.54475
H          2.81462        3.17372        1.27251
H          2.94842        2.56910        2.89665
H          2.90520        1.32803        1.61492
H          1.47926        4.49713        2.32427
H         -0.12009        4.33793        1.76113
H          0.30871        3.85752        3.43886
Mg         0.88933        3.31375       -0.69742
C          2.42167        5.57808       -1.43883
C          0.32682        5.42066       -2.50506
O          1.41140        4.71404       -1.93444
C          1.98120        6.49503       -0.29328
C         -0.73662        4.43855       -2.97045
H          3.23637        4.93623       -1.05070
H          2.87055        6.16973       -2.26697
H         -0.16525        6.09974       -1.77929
H          0.67648        5.98689       -3.39724
H         -1.15250        3.89297       -2.09787
H         -1.56241        4.99325       -3.46578
H         -0.30661        3.71260       -3.69171
H          1.52597        5.89933        0.51844
H          2.86738        7.03182        0.10610
H          1.26218        7.26604       -0.63493
C          6.70144       -3.12687       -0.47292
C          6.28388       -2.90167        0.82150
C          5.02191       -2.34162        0.76637
C          4.67572       -2.23712       -0.52433
N          5.69348       -2.72976       -1.37388
C          3.38922       -1.63588       -1.03956
N          3.17459       -0.22747       -0.61182
C          4.19198        0.73272       -1.21946
H          6.85318       -3.09848        1.71606
H          7.65901       -3.53603       -0.75595
H          4.40670       -2.03939        1.59502
H          2.58093       -2.26132       -0.64680
H          3.33212       -1.72165       -2.14561
C          4.27012        0.67953       -2.75460
C          3.82270        2.15911       -0.86407
C          5.62872        0.54060       -0.62323
H          3.28033        0.88533       -3.20644
H          4.98668        1.45678       -3.11631
H          4.67256       -0.28330       -3.11424
H          4.19061        2.33323        0.14391
H          4.41055        2.90297       -1.43558
H          2.74172        2.34432       -1.01589
H          5.58683        0.50156        0.48919
H          6.16473       -0.33631       -0.99846
H          6.28690        1.39508       -0.89315
