65
speciation32.ct
Mg         2.14870       -0.07296        1.01297
H          2.70528       -0.67291        3.67880
C          1.76512        1.25109        3.75153
C          2.72179        0.26025        3.08477
C          0.32310        0.74594        3.68321
H          2.06546        1.39566        4.81281
H          1.83120        2.22934        3.23580
H          0.03136        0.62799        2.61842
H          0.24014       -0.24340        4.18334
C         -0.64286        1.71992        4.35152
H          3.75923        0.64530        3.16481
H         -0.41126        1.80785        5.43446
H         -0.57299        2.72351        3.88032
H         -1.68347        1.34798        4.23998
C         -1.83049       -1.03965        0.28532
C         -2.88698       -0.14042        0.29040
C         -2.34116        1.11316        0.10628
C         -0.99434        0.90680       -0.02383
N         -0.67107       -0.37205        0.11869
C          0.05432        1.90227       -0.36721
N          1.31646        1.66636        0.37285
C          2.38100        2.66362        0.00710
H         -3.93673       -0.37173        0.41525
H         -1.90421       -2.10840        0.41126
H         -2.87225        2.05533        0.03837
H         -0.33887        2.93448       -0.26325
H          0.25152        1.69806       -1.44034
C          2.00884        4.04442        0.59119
C          3.72407        2.26442        0.61858
C          2.60335        2.82425       -1.52253
H          1.82237        3.96615        1.68883
H          2.82612        4.77934        0.43904
H          1.10463        4.48200        0.12719
H          4.02083        1.27347        0.24742
H          4.52035        2.99324        0.34422
H          3.67286        2.26467        1.71470
H          2.91465        1.87043       -1.98715
H          1.70230        3.21103       -2.04196
H          3.40471        3.57266       -1.71852
Mg         1.23495       -0.36582        0.02043
C          6.70385       -0.68996       -0.77814
C          6.78710       -1.19377       -2.05513
C          5.49946       -1.47035       -2.48322
C          4.66548       -1.13881       -1.49991
N          5.36336       -0.61998       -0.38905
C          3.18815       -1.33931       -1.51675
N          2.66989       -1.64454       -0.17555
C          2.90797       -2.99157        0.43084
H          7.70051       -1.35993       -2.60744
H          7.53239       -0.39619       -0.14931
H          5.21483       -1.89673       -3.43599
H          2.86766       -2.08159       -2.27848
H          2.71880       -0.38689       -1.83090
C          4.38764       -3.16565        0.84632
C          2.04970       -3.12888        1.69106
C          2.53951       -4.14569       -0.53247
H          4.69977       -2.34944        1.53178
H          4.54133       -4.13260        1.37104
H          5.06303       -3.19233       -0.03192
H          0.97073       -3.05583        1.45137
H          2.24172       -4.10303        2.19459
H          2.30859       -2.33609        2.40390
H          1.46887       -4.10024       -0.81867
H          3.16335       -4.12980       -1.45100
H          2.72793       -5.12957       -0.04459
