80
speciation69.ct
Mg         1.28789       -0.24660       -0.05320
C         -0.52761        1.17770        1.57154
C         -0.37217       -1.05477        2.32497
O         -0.35107       -0.19427        1.16615
C          0.55562        1.54366        2.50376
C         -1.71317       -1.03069        3.07816
H         -0.42583        1.80718        0.67204
H         -1.49313        1.43956        2.04435
H         -0.12075       -2.10339        2.07327
H          0.41210       -0.75184        3.00241
H         -2.50274       -1.65258        2.62708
H         -1.55197       -1.41587        4.10523
H         -2.11265       -0.01894        3.14229
H          1.42934        0.98511        2.12267
H          0.68587        2.60760        2.53440
H          0.32515        1.11866        3.50669
H         -3.99741        0.64983        0.26997
C         -4.86341        0.48191       -1.73722
C         -3.82001        1.02922       -0.76286
C         -6.31101        0.78575       -1.28569
H         -4.71860        0.94437       -2.73186
H         -4.74148       -0.62453       -1.84447
H         -6.49141        0.31369       -0.29724
H         -6.51335        1.86716       -1.23180
C         -7.27885        0.21461       -2.29314
H         -3.89656        2.12845       -0.74715
H         -7.23108        0.77989       -3.24245
H         -6.91294       -0.79947       -2.47127
H         -8.32483        0.20866       -1.91730
C         -0.90941        3.43379       -5.21042
C         -1.88726        3.58716       -4.27737
C         -1.46194        2.92972       -3.14709
C         -0.25008        2.54825       -3.27022
N          0.16735        2.68043       -4.66479
C          0.59706        1.68717       -2.24028
N          0.04675        0.37042       -1.70640
C         -0.15394       -0.73454       -2.71271
H         -2.81804        4.14691       -4.39228
H         -0.94711        3.83013       -6.21709
H         -2.00019        2.86667       -2.24044
H          0.72934        2.39577       -1.41832
H          1.59298        1.52202       -2.66844
C          1.17170       -1.11834       -3.42864
C         -0.93415       -1.95639       -2.13286
C         -1.05553       -0.26566       -3.81084
H          2.08304       -1.26264       -2.84280
H          1.03005       -1.95553       -4.14537
H          1.49672       -0.27924       -4.06257
H         -2.00696       -1.71233       -1.94970
H         -0.95853       -2.77336       -2.89769
H         -0.54083       -2.30862       -1.17508
H         -2.09025       -0.02139       -3.51470
H         -0.53887        0.48796       -4.08797
H         -1.08346       -0.96417       -4.67213
Mg        -1.84099        0.68567       -1.22968
C          4.10823        3.49633       -1.61703
C          3.93606        4.06054       -0.38607
C          3.82748        3.02379        0.53573
C          4.07561        1.85387       -0.11164
N          4.06610        2.09629       -1.50136
C          4.46105        0.45939        0.48751
N          3.48128       -0.67743        0.18132
C          3.95019       -2.01742        0.78425
H          4.01556        5.12056       -0.16482
H          4.33606        4.03143       -2.53069
H          3.72695        3.23604        1.58201
H          4.71281        0.62910        1.54369
H          5.51734        0.18335        0.16980
C          4.00111       -1.74589        2.30288
C          3.06361       -3.34344        0.76718
C          5.15410       -2.53705       -0.05991
H          2.95756       -1.73982        2.66382
H          4.54660       -2.48925        2.89725
H          4.05745       -0.74398        2.64155
H          2.58611       -3.63047       -0.17675
H          3.70092       -4.22803        1.05209
H          2.43211       -3.51193        1.65381
H          4.77128       -2.67984       -1.11170
H          6.05110       -1.91626       -0.09403
H          5.52705       -3.53827        0.25996
