95
speciation143.ct
Mg         2.14552        1.19216       -1.69687
C         -0.04326        1.93425       -0.89057
C         -1.48670        0.66759       -2.00203
O         -0.09881        1.05967       -1.88833
C         -0.08751        3.11780       -1.66793
C         -2.23146        1.55971       -3.02858
H         -0.83194        2.03204       -0.12359
H          0.88100        1.73099       -0.30265
H         -1.60925       -0.37245       -2.30678
H         -2.04004        0.64018       -1.03401
H         -1.85409        1.36059       -4.04197
H         -3.32926        1.39742       -2.96949
H         -2.15333        2.64948       -2.88671
H         -1.02437        3.68959       -1.57085
H          0.47690        3.57842       -1.03924
H          0.46918        3.08163       -2.63468
H          1.92613        2.25211       -4.61112
C          3.58828        1.72042       -5.89358
C          3.03012        2.35897       -4.59079
C          3.41771        0.20671       -5.90273
H          3.06821        2.15099       -6.78674
H          4.66356        1.96915       -6.01530
H          3.94284       -0.20239       -5.01664
H          2.33616       -0.03868       -5.84439
C          4.00509       -0.43883       -7.16271
H          3.21985        3.44714       -4.75481
H          3.48205       -0.08745       -8.07856
H          5.08864       -0.20958       -7.25625
H          3.88753       -1.54142       -7.09419
C          4.24191        5.06035       -2.43142
C          5.45814        5.68197       -2.38739
C          6.36101        4.73277       -2.59872
C          5.63479        3.57682       -2.79150
N          4.27969        3.68601       -2.48736
C          6.35355        2.47726       -3.36436
N          5.80961        1.33059       -2.76963
C          6.53115        0.94652       -1.53889
H          5.66953        6.73333       -2.21925
H          3.51853        5.76526       -2.35977
H          7.43907        4.90603       -2.65915
H          7.46898        2.59113       -3.33292
H          6.11626        2.48955       -4.44267
C          6.33492        2.00947       -0.43118
C          5.90713       -0.38251       -1.31334
C          8.06408        0.71840       -1.64842
H          5.32664        2.41160       -0.46448
H          6.57465        1.61686        0.57620
H          6.99307        2.89745       -0.58369
H          6.21289       -1.08483       -2.11527
H          6.15500       -0.78390       -0.32069
H          4.84092       -0.27168       -1.54628
H          8.31853       -0.02386       -2.42755
H          8.64308        1.64928       -1.82738
H          8.42139        0.34092       -0.66222
Mg         3.71492        1.97089       -2.26840
C          0.92710       -2.08199       -0.80049
C          0.19359       -0.78772        0.93388
O          0.86761       -0.66627       -0.38881
C         -0.42029       -2.90343       -0.90067
C         -0.20799        0.39266        1.81769
H          1.43511       -2.16907       -1.76925
H          1.53589       -2.69477       -0.07976
H         -0.82223       -1.23648        0.82458
H          0.79772       -1.43105        1.61700
H         -1.13257        0.88432        1.46620
H         -0.56587       -0.01644        2.79503
H          0.63327        1.07244        2.02176
H         -1.21023       -2.37384       -1.46504
H         -0.26789       -3.89543       -1.36659
H         -0.86268       -3.18120        0.09866
C          3.50107       -0.65167        0.24064
C          4.20040       -0.57768        1.42400
C          4.17340        0.75537        1.78815
C          3.47487        1.43927        0.79704
N          3.11061        0.56687       -0.17315
C          3.17129        2.88932        0.73635
N          2.68419        3.44152       -0.56872
C          2.14198        4.94008       -0.40823
H          4.66238       -1.42169        1.91227
H          3.37099       -1.55351       -0.33837
H          4.66010        1.15084        2.65012
H          2.40339        3.03597        1.52605
H          4.08434        3.45776        1.04537
C          3.16829        6.01871        0.09657
C          1.40910        5.50704       -1.77635
C          1.04100        5.05552        0.71558
H          3.83684        6.56167       -0.58057
H          2.60926        6.90973        0.44476
H          3.77695        5.64348        0.92412
H          0.33251        5.38937       -1.98568
H          1.45883        6.60824       -1.85947
H          1.75525        5.01100       -2.73050
H          0.17839        4.36837        0.71821
H          1.48991        4.95560        1.71314
H          0.57018        6.05831        0.64279
