65
speciation24.ct
Mg         1.08079       -0.05892       -0.00089
H         -1.28315        1.00198        0.05889
C         -1.61855       -0.87088        1.10704
C         -0.95921       -0.05892       -0.00089
C         -1.23011       -0.34792        2.49240
H         -2.72237       -0.80443        0.98294
H         -1.30931       -1.93294        1.00714
H         -0.13140       -0.42389        2.62375
H         -1.52645        0.71906        2.59373
C         -1.91993       -1.15644        3.58850
H         -1.26986       -0.46514       -0.98651
H         -3.02357       -1.06052        3.49991
H         -1.64164       -2.22922        3.51122
H         -1.60972       -0.77881        4.58532
C          5.04883       -1.06950       -3.36128
C          5.41832        0.14416       -3.90788
C          4.90472        1.12310       -3.07891
C          4.25948        0.45334       -2.06241
N          4.35882       -0.86507       -2.23005
C          3.51871        1.03226       -0.90304
N          3.07079       -0.05892       -0.00089
C          3.59898        0.02755        1.38787
H          5.99341        0.29309       -4.81119
H          5.27202       -2.03823       -3.76982
H          4.99846        2.19424       -3.20163
H          2.63636        1.58789       -1.27947
H          4.18255        1.76611       -0.40752
C          3.08972        1.30490        2.09196
C          3.08595       -1.18302        2.18104
C          5.14825       -0.02149        1.41545
H          1.97924        1.33790        2.07869
H          3.42913        1.32534        3.15075
H          3.47170        2.22968        1.61606
H          3.53340       -2.11512        1.79494
H          3.37808       -1.11090        3.25152
H          1.98168       -1.25650        2.11910
H          5.51442       -0.93805        0.90451
H          5.61564        0.85373        0.92380
H          5.51742       -0.03377        2.46398
Mg         3.49034       -1.75677       -0.81510
C          2.12942       -4.01663        0.50281
C          2.35855       -5.33847        0.81104
C          3.58696       -5.66799        0.26733
C          4.04941       -4.52243       -0.35477
N          3.16857       -3.52705       -0.19887
C          5.35632       -4.32370       -1.06735
N          5.77572       -5.55835       -1.73871
C          7.02343       -5.47820       -2.53378
H          1.70406       -5.98270        1.38447
H          1.27112       -3.42728        0.79669
H          4.08429       -6.62530        0.33180
H          5.19555       -3.51900       -1.80956
H          6.10712       -3.98634       -0.32549
C          8.23963       -5.13835       -1.64724
C          7.23820       -6.86169       -3.16462
C          6.91808       -4.44305       -3.66987
H          8.34197       -5.87315       -0.82322
H          9.17349       -5.14853       -2.25221
H          8.15158       -4.12111       -1.21010
H          6.36230       -7.13725       -3.79141
H          8.14536       -6.86875       -3.80745
H          7.35868       -7.63314       -2.37509
H          6.02884       -4.63988       -4.30716
H          6.87018       -3.41882       -3.25911
H          7.82532       -4.47287       -4.31265
