80
speciation47.ct
Mg         1.00405        0.12319       -0.02378
C          0.10164       -2.25787       -1.10283
C         -1.29406       -0.40683       -1.59502
O         -0.44473       -1.03009       -0.63226
C          0.91755       -2.15228       -2.39503
C         -2.57345       -1.20793       -1.88485
H          0.77461       -2.63398       -0.32474
H         -0.67209       -3.05015       -1.17295
H         -1.62993        0.56669       -1.19546
H         -0.75620       -0.16895       -2.53381
H         -3.15550       -1.35890       -0.95123
H         -3.20235       -0.65056       -2.61135
H         -2.34981       -2.19409       -2.34067
H          1.67381       -1.34668       -2.30411
H          1.43200       -3.11716       -2.58237
H          0.26380       -1.95913       -3.26983
H          0.09030        2.60176        0.45581
C         -0.01641        1.87862        2.49591
C         -0.16890        1.66083        0.98508
C         -0.91933        3.02715        2.99650
H         -0.28571        0.94069        3.02799
H          1.04246        2.12894        2.71215
H         -0.66263        3.96681        2.46233
H         -1.98844        2.78956        2.79533
C         -0.75166        3.26555        4.49787
H         -1.23626        1.43676        0.78498
H         -1.04302        2.36076        5.07252
H          0.30235        3.52449        4.73258
H         -1.39952        4.10995        4.82089
C          2.86169        4.38980       -1.86421
C          2.06849        3.46968       -2.51113
C          2.21436        2.24769       -1.86406
C          3.07787        2.42120       -0.86542
N          3.51524        3.76251       -0.80327
C          3.61212        1.42228        0.11736
N          3.07055        0.03741        0.04595
C          3.61158       -0.78787        1.19087
H          1.45975        3.68533       -3.38102
H          2.98681        5.43257       -2.13166
H          1.73073        1.32083       -2.13533
H          3.34466        1.88447        1.08319
H          4.70356        1.42032       -0.02290
C          3.32528       -0.17873        2.59280
C          2.95875       -2.17237        1.17416
C          5.14274       -1.00558        1.05455
H          2.23676       -0.02624        2.74053
H          3.68738       -0.86253        3.39200
H          3.86109        0.77347        2.77666
H          3.12772       -2.67863        0.20053
H          3.38689       -2.81812        1.97465
H          1.87864       -2.07463        1.39047
H          5.38838       -1.50955        0.09588
H          5.72041       -0.06265        1.12010
H          5.52016       -1.64311        1.88479
Mg         3.73388       -1.00131       -1.51647
C          4.33606       -3.37537       -3.23699
C          4.92207       -3.74183       -4.43154
C          5.36329       -2.58041       -5.02624
C          5.02822       -1.55274       -4.16725
N          4.39720       -2.04003       -3.07889
C          5.30944       -0.09832       -4.40811
N          6.20803        0.43198       -3.37034
C          6.61625        1.85174       -3.54250
H          5.02005       -4.74407       -4.82476
H          3.88986       -4.05010       -2.51942
H          5.87422       -2.49285       -5.97661
H          5.77959       -0.00652       -5.40548
H          4.33557        0.43188       -4.40247
C          5.40690        2.78994       -3.52385
C          7.52016        2.21763       -2.34467
C          7.41305        2.07119       -4.84246
H          4.87505        2.61980       -2.58447
H          5.71479        3.85700       -3.56598
H          4.70939        2.60976       -4.36701
H          8.41600        1.56476       -2.31758
H          7.85427        3.27707       -2.41372
H          6.96629        2.09511       -1.38687
H          8.29077        1.39625       -4.87993
H          6.78054        1.89938       -5.73798
H          7.76427        3.12388       -4.90236
