65
speciation5.ct
Mg         0.93504        0.10761        0.06764
H         -1.46701       -0.29295        1.07002
C         -1.63068       -0.69175       -1.06404
C         -1.10451        0.12416        0.10712
C         -1.12707       -0.10200       -2.38933
H         -1.28183       -1.73779       -0.96564
H         -2.74284       -0.67622       -1.04763
H         -1.46532        0.95497       -2.48478
H         -0.01579       -0.12086       -2.40505
C         -1.65377       -0.89082       -3.58573
H         -1.44989        1.17654        0.01774
H         -1.32019       -1.94794       -3.52865
H         -2.76444       -0.85789       -3.60998
H         -1.26595       -0.44490       -4.52587
C          3.70274       -1.00728        0.01625
C          5.03414       -0.64879       -0.04622
C          5.06839        0.72789       -0.08200
C          3.75296        1.14657       -0.04001
N          2.92460        0.09147        0.02913
C          3.29135        2.56261       -0.04202
N          2.42101        2.82758       -1.20281
C          1.89310        4.21802       -1.25021
H          5.88445       -1.31711       -0.06575
H          3.32171       -2.01904        0.05002
H          5.95083        1.35243       -0.13210
H          2.74603        2.71491        0.90938
H          4.19165        3.20771       -0.06865
C          3.03040        5.26556       -1.29304
C          1.06819        4.35769       -2.53715
C          0.97402        4.52003       -0.04416
H          3.69802        5.06159       -2.14800
H          2.61889        6.29101       -1.40829
H          3.63225        5.27516       -0.36118
H          0.22241        3.63739       -2.53619
H          0.65351        5.38644       -2.62658
H          1.70251        4.15881       -3.42710
H          0.14642        3.78187        0.01167
H          1.52946        4.50713        0.91575
H          0.53657        5.53796       -0.13546
Mg         3.52096        2.49878       -2.82826
C          4.87170        0.97293       -5.01812
C          5.66087        1.12960       -6.14107
C          5.89571        2.48052       -6.27287
C          5.24808        3.08475       -5.21475
N          4.62092        2.16998       -4.45371
C          5.26640        4.54059       -4.89589
N          5.74597        4.77498       -3.52224
C          7.15714        4.47583       -3.17066
H          6.03130        0.34484       -6.78701
H          4.50775        0.03235       -4.62814
H          6.48885        2.96583       -7.03716
H          5.85505        5.11904       -5.63668
H          4.21969        4.90829       -4.95483
C          8.13318        5.26500       -4.06326
C          7.34365        4.90787       -1.71225
C          7.47772        2.96476       -3.23906
H          7.93297        6.35495       -3.98267
H          9.18184        5.07192       -3.75345
H          8.04022        4.96485       -5.12765
H          6.62875        4.36375       -1.05525
H          8.37511        4.68534       -1.36353
H          7.16007        5.99692       -1.59830
H          6.73368        2.38167       -2.65322
H          7.51611        2.58729       -4.27377
H          8.48642        2.76106       -2.82419
