65
speciation21.ct
Mg         1.00123        0.22882        0.02135
H          0.60777       -1.48608       -1.88120
C         -1.46498       -1.48756       -1.41535
C         -0.01011       -1.36656       -0.97004
C         -1.83336       -0.41242       -2.43490
H         -1.60235       -2.49050       -1.87976
H         -2.13950       -1.43469       -0.54248
H         -1.70522        0.59007       -1.97616
H         -1.16720       -0.49271       -3.32244
C         -3.28051       -0.57885       -2.89131
H          0.18739       -2.20781       -0.27259
H         -3.41968       -1.56534       -3.38483
H         -3.96869       -0.50882       -2.02201
H         -3.53722        0.22054       -3.61680
C          1.83138        5.33837        1.26538
C          1.09187        5.99928        0.30097
C          0.14427        5.10184       -0.15800
C          0.34685        3.93172        0.54843
N          1.38059        4.08029        1.39013
C         -0.45801        2.63322        0.43194
N          0.09921        1.52163        1.25935
C         -0.69559        1.02845        2.40879
H          1.22879        7.01960       -0.02952
H          2.65496        5.75137        1.83561
H         -0.60316        5.28369       -0.92169
H         -0.42537        2.30516       -0.62835
H         -1.51403        2.85875        0.67528
C         -2.09514        0.52487        2.00674
C          0.08787       -0.14804        3.01812
C         -0.84718        2.12925        3.48079
H         -2.01562       -0.26838        1.25067
H         -2.61773        0.10055        2.89291
H         -2.74241        1.33532        1.61668
H          1.09830        0.18284        3.34031
H         -0.44292       -0.57080        3.89874
H          0.21246       -0.95423        2.26290
H          0.14447        2.48622        3.83037
H         -1.41321        2.99895        3.08663
H         -1.39579        1.73876        4.36636
Mg         1.47156        2.46058        2.15537
C          2.90143       -3.94363       -1.99531
C          4.27616       -3.97772       -2.00583
C          4.72348       -2.93405       -1.20834
C          3.65795       -2.28041       -0.73557
N          2.47090       -2.88810       -1.18258
C          3.69576       -1.05923        0.15419
N          2.97112        0.10342       -0.40451
C          3.53125        0.82453       -1.58334
H          4.88049       -4.68840       -2.55256
H          2.24167       -4.61593       -2.52943
H          5.75719       -2.68049       -1.01659
H          4.74193       -0.78895        0.40160
H          3.20559       -1.32853        1.11240
C          3.48554       -0.04280       -2.85409
C          2.66208        2.07058       -1.82734
C          4.98227        1.30188       -1.33529
H          2.45998       -0.42867       -3.02496
H          3.79330        0.54860       -3.74313
H          4.19342       -0.88832       -2.79771
H          2.70663        2.76010       -0.95783
H          3.01794        2.62788       -2.72365
H          1.60505        1.77971       -1.99775
H          5.03220        1.97530       -0.45218
H          5.67901        0.45391       -1.17614
H          5.36158        1.86634       -2.21695
