80
speciation79.ct
Mg         1.46673        1.50762        0.22224
C          1.09457        4.07626        1.24974
C          2.71244        3.93451       -0.50575
O          2.01436        3.26582        0.53229
C         -0.09600        4.61155        0.43987
C          3.72897        4.94427        0.03633
H          0.69004        3.47103        2.09060
H          1.62881        4.90515        1.74776
H          3.29560        3.17264       -1.06203
H          2.03617        4.40495       -1.24455
H          4.45322        4.43272        0.70471
H          4.27902        5.41041       -0.80695
H          3.23595        5.76595        0.59353
H          0.19422        5.14201       -0.48447
H         -0.65144        5.34067        1.06826
H         -0.78485        3.79744        0.17440
H          3.05863        0.59171       -4.18905
C          1.53043        1.79231       -3.23702
C          2.35415        0.50307       -3.33519
C          0.72844        2.06820       -4.52398
H          0.82803        1.71585       -2.37979
H          2.22829        2.63310       -3.06631
H          1.41755        2.11896       -5.39613
H         -0.00420        1.24970       -4.70355
C         -0.02972        3.39556       -4.43844
H          1.66656       -0.34699       -3.53960
H         -0.75289        3.38049       -3.59705
H          0.68238        4.23595       -4.29305
H         -0.58978        3.57448       -5.38298
C         -1.53003        1.00698       -0.00836
C         -2.25811       -0.14710       -0.19268
C         -1.34746       -1.17935       -0.29624
C         -0.10455       -0.59565       -0.17875
N         -0.22840        0.72568        0.01064
C          1.23550       -1.27371       -0.20164
N          2.32794       -0.27926       -0.01909
C          3.12592       -0.44878        1.21818
H         -3.33887       -0.21971       -0.24347
H         -1.95294        1.99078        0.10747
H         -1.57453       -2.22698       -0.43540
H          1.34297       -1.77020       -1.17750
H          1.21181       -2.05285        0.58990
C          3.79932       -1.84462        1.32936
C          4.23662        0.59544        1.16494
C          2.26559       -0.18275        2.46855
H          4.46984       -2.02699        0.46913
H          4.42293       -1.89694        2.24847
H          3.07651       -2.68139        1.40162
H          3.83615        1.61573        1.08529
H          4.89768        0.53113        2.06220
H          4.83932        0.37542        0.27549
H          1.79639        0.82134        2.40537
H          1.46507       -0.94016        2.58259
H          2.89494       -0.21720        3.38418
Mg         3.56513       -0.08014       -1.62486
C          2.80602       -4.02539       -1.74951
C          2.24843       -3.63120       -2.94595
C          3.12830       -2.74560       -3.53857
C          4.17742       -2.59698       -2.73151
N          4.04530       -3.38956       -1.57326
C          5.36261       -1.73089       -3.02423
N          5.49704       -0.66658       -2.01630
C          6.67951        0.23710       -2.23845
H          1.29514       -3.95585       -3.33909
H          2.36177       -4.71358       -1.04377
H          2.99333       -2.25378       -4.49304
H          5.21869       -1.28365       -4.02713
H          6.24652       -2.39624       -3.03252
C          6.55133        1.02731       -3.55699
C          6.80246        1.26393       -1.09202
C          8.00855       -0.56473       -2.24250
H          5.60471        1.60669       -3.56821
H          7.40097        1.73767       -3.66790
H          6.58416        0.36118       -4.44107
H          6.97184        0.75774       -0.11719
H          7.68329        1.92733       -1.25434
H          5.90668        1.91630       -1.03376
H          8.11893       -1.13564       -1.29329
H          8.07848       -1.27005       -3.09272
H          8.88318        0.11627       -2.33595
