80
speciation55.ct
Mg         0.44324        1.19135       -0.06685
C          2.00353        1.46876       -2.89634
C          0.06709        2.75763       -2.65399
O          0.79258        1.62408       -2.13955
C          2.95334        2.67546       -2.94444
C         -0.39142        2.61956       -4.13251
H          2.58547        0.64196       -2.54448
H          1.77670        1.10532       -3.92209
H         -0.82420        2.91701       -2.01934
H          0.63845        3.69644       -2.57430
H         -0.98245        1.70745       -4.33765
H         -1.02419        3.49307       -4.40605
H          0.46612        2.61883       -4.83179
H          3.18212        3.02996       -1.91936
H          3.89787        2.37592       -3.44741
H          2.53400        3.50276       -3.55388
H          0.97539        3.13725        1.91877
C          0.27261        4.46368        0.36782
C          0.99173        3.16493        0.81679
C         -1.23381        4.49393        0.68695
H          0.75682        5.34093        0.84698
H          0.41554        4.58701       -0.71124
H         -1.71008        3.58111        0.28183
H         -1.37876        4.52755        1.78392
C         -1.94841        5.69564        0.04999
H          2.06154        3.26178        0.53831
H         -2.75295        6.22903        0.58845
H         -1.77467        5.76066       -1.04693
H         -2.99372        5.38034        0.03390
C         -0.53396        2.15438        4.23975
C         -1.07434        1.02962        4.83507
C         -1.83906        0.40806        3.89713
C         -1.75811        1.10647        2.75232
N         -0.98607        2.25331        2.91197
C         -2.50282        0.75601        1.49950
N         -1.75259        0.73136        0.20757
C         -2.76257        0.47923       -0.91853
H         -0.87906        0.70572        5.85926
H          0.14947        2.86139        4.72234
H         -2.40540       -0.50028        4.03704
H         -3.27090        1.53689        1.46897
H         -2.98638       -0.22343        1.71789
C         -3.60375        1.76221       -1.16463
C         -2.05126        0.09515       -2.20200
C         -3.74959       -0.69223       -0.67828
H         -2.96227        2.63444       -1.37247
H         -4.28409        1.63362       -2.03100
H         -4.26218        2.03158       -0.31211
H         -1.45622       -0.83416       -2.08413
H         -2.77203       -0.00703       -3.04138
H         -1.40233        0.88695       -2.45234
H         -3.21741       -1.65378       -0.55899
H         -4.43351       -0.52599        0.19199
H         -4.43708       -0.78867       -1.54964
Mg        -0.08534       -0.33335        0.15615
C          5.70259        1.15263        1.37726
C          6.28306       -0.09303        1.32160
C          5.32295       -0.95715        0.79947
C          4.21455       -0.25850        0.54154
N          4.39230        1.10679        0.86110
C          2.92523       -0.83856       -0.00838
N          1.73146       -0.57217        0.82331
C          1.75402       -1.36786        2.11873
H          7.27257       -0.35142        1.65081
H          6.19411        2.05040        1.74269
H          5.45507       -2.02517        0.64690
H          3.02270       -1.91494       -0.25413
H          2.75469       -0.38740       -0.94198
C          2.85669       -0.92541        3.13174
C          0.44313       -1.16377        2.82097
C          1.90358       -2.90175        1.89553
H          2.80398        0.16409        3.33855
H          2.73306       -1.46222        4.10068
H          3.87178       -1.19884        2.82495
H         -0.41147       -1.47619        2.18204
H          0.39575       -1.73535        3.77871
H          0.42713       -0.09452        3.04333
H          1.06936       -3.31326        1.28937
H          2.86795       -3.17750        1.42897
H          1.91185       -3.43856        2.87016
