80
speciation91.ct
Mg         1.61504        1.56552        0.97089
C          3.25911        4.04570        2.06158
C          1.03779        4.32648        1.24672
O          2.14931        3.45554        1.36408
C          3.00048        4.44744        3.52293
C          1.34194        5.63604        0.50676
H          4.14317        3.39305        2.05655
H          3.69731        4.89175        1.48879
H          0.27738        3.79014        0.63938
H          0.56916        4.52646        2.23067
H          1.77970        5.42705       -0.49170
H          0.40221        6.20946        0.37692
H          2.03575        6.28063        1.08665
H          3.12212        5.54630        3.63362
H          3.74757        3.96766        4.19130
H          1.99352        4.15181        3.88002
H          1.76809        1.24269       -3.19986
C          1.58720       -0.76935       -3.95277
C          2.39293        0.32787       -3.28067
C          0.37922       -1.07019       -3.08696
H          1.25508       -0.42891       -4.96065
H          2.22593       -1.67221       -4.07458
H          0.74634       -1.38739       -2.11115
H         -0.23723       -0.15291       -2.95929
C         -0.48144       -2.18052       -3.66060
H          3.24997        0.57501       -3.94894
H         -0.90070       -1.87030       -4.63964
H          0.12085       -3.10540       -3.78408
H         -1.31290       -2.38375       -2.95346
C         -1.41235        1.06341        0.58208
C         -2.18887       -0.08308        0.39999
C         -1.31687       -1.14976        0.36016
C         -0.05645       -0.60904        0.50916
N         -0.11728        0.72023        0.65187
C          1.23315       -1.33123        0.56926
N          2.33879       -0.34362        0.57995
C          3.18852       -0.47199        1.79490
H         -3.26709       -0.13076        0.32201
H         -1.79157        2.06389        0.67815
H         -1.57093       -2.19584        0.24645
H          1.37652       -2.04521       -0.25494
H          1.15288       -1.95561        1.48123
C          3.68931       -1.92817        2.05108
C          4.31759        0.53117        1.60931
C          2.43372       -0.06541        3.07932
H          3.93732       -2.45504        1.13832
H          4.54942       -1.93497        2.75377
H          2.91628       -2.58123        2.49850
H          3.83137        1.49619        1.47195
H          5.00931        0.56951        2.47492
H          4.88917        0.39503        0.69090
H          2.00165        0.95222        2.99787
H          1.61246       -0.77167        3.32184
H          3.13502       -0.08083        3.94426
Mg         3.33439       -0.05305       -1.36922
C          3.95767        2.86922       -1.14360
C          5.13900        3.55369       -1.32385
C          6.09467        2.61276       -1.67895
C          5.45108        1.39428       -1.68650
N          4.16983        1.55792       -1.33929
C          6.04345        0.04048       -2.03489
N          5.03740       -1.04480       -1.83387
C          5.54201       -2.34481       -1.33022
H          5.27908        4.62251       -1.22915
H          2.99847        3.29646       -0.90803
H          7.13904        2.80475       -1.89504
H          6.92237       -0.09099       -1.38520
H          6.38545        0.04390       -3.08653
C          6.20492       -2.16884        0.05679
C          4.33938       -3.31450       -1.31758
C          6.62585       -2.97965       -2.22258
H          5.66534       -1.47607        0.67114
H          6.31360       -3.13207        0.59066
H          7.20396       -1.69936       -0.00349
H          4.02842       -3.55329       -2.35747
H          4.59782       -4.26856       -0.80938
H          3.44543       -2.87397       -0.84716
H          6.25422       -3.18372       -3.24576
H          7.52296       -2.32692       -2.28853
H          6.95329       -3.94423       -1.76854
