95
speciation139.ct
Mg         1.28770        0.21908        0.01007
C          3.36883       -1.83557       -0.39745
C          4.26164        0.39180       -0.38454
O          3.10535       -0.44004       -0.32938
C          4.31268       -2.36047        0.69733
C          5.03701        0.28094       -1.71345
H          2.40118       -2.36099       -0.27616
H          3.73733       -2.12321       -1.40558
H          3.93481        1.44180       -0.27522
H          4.93202        0.21449        0.48164
H          4.37708        0.53010       -2.56864
H          5.89434        0.98385       -1.70376
H          5.45354       -0.73779       -1.85780
H          3.92205       -2.10501        1.70302
H          4.39916       -3.46485        0.61554
H          5.33916       -1.95310        0.58592
H         -1.12201       -2.94483        0.30546
C         -3.20849       -3.09517        0.01880
C         -2.03928       -2.66768        0.86612
C         -3.14330       -2.32019       -1.27921
H         -3.15946       -4.19157       -0.19016
H         -4.14317       -2.88150        0.57890
H         -3.08963       -1.25008       -1.02602
H         -2.22087       -2.58949       -1.84077
C         -4.36677       -2.58548       -2.13494
H         -2.06185       -3.35860        1.73619
H         -4.40110       -3.65378       -2.43462
H         -5.28646       -2.33084       -1.56562
H         -4.31226       -1.94850       -3.03811
C         -2.03953       -2.59376        4.56664
C         -0.96886       -3.33246        5.01293
C          0.11935       -3.02663        4.20621
C         -0.27198       -2.13226        3.29829
N         -1.63561       -1.80798        3.48324
C          0.60533       -1.53867        2.21065
N          0.15130       -0.20821        1.74579
C          0.42361        0.89593        2.72733
H         -0.99396       -4.02617        5.84132
H         -3.04239       -2.60580        4.97295
H          1.11279       -3.44307        4.29388
H          0.59615       -2.23127        1.35404
H          1.67320       -1.55334        2.49312
C          1.90346        0.96844        3.17777
C          0.08211        2.22056        2.02935
C         -0.42429        0.76595        4.01519
H          2.58462        1.08049        2.31139
H          2.05080        1.83074        3.86568
H          2.20175        0.07493        3.76578
H         -0.96332        2.22551        1.66772
H          0.22531        3.07970        2.72241
H          0.74766        2.37336        1.15450
H         -1.47213        0.55920        3.76638
H         -0.08452       -0.05530        4.66946
H         -0.36981        1.68665        4.63442
Mg        -1.95086       -0.37872        1.44411
C         -0.48475        0.93956       -2.06347
C          1.56477        2.15159       -2.20826
O          0.63665        1.47104       -1.36303
C         -0.16200        0.09388       -3.30776
C          0.98980        3.44576       -2.81253
H         -1.02294        0.28285       -1.35148
H         -1.19563        1.75322       -2.31955
H          2.43175        2.46248       -1.59747
H          1.97294        1.49381       -3.00347
H          0.70359        4.15616       -2.00757
H          1.75510        3.93472       -3.45463
H          0.10511        3.25193       -3.45287
H          0.55003       -0.71780       -3.05149
H         -1.09706       -0.35741       -3.70280
H          0.25845        0.71282       -4.12905
C         -3.44997        2.00983        2.74788
C         -4.56957        2.80999        2.84667
C         -5.43292        2.36529        1.91960
C         -4.81823        1.30959        1.26743
N         -3.57424        1.05119        1.78746
C         -5.49172        0.63714        0.11556
N         -5.96979        1.63192       -0.87187
C         -4.98525        2.31500       -1.74696
H         -4.71206        3.64065        3.53088
H         -2.60588        2.18975        3.37618
H         -6.42101        2.76875        1.71375
H         -4.87991       -0.15449       -0.33511
H         -6.39732        0.13709        0.52521
C         -4.13661        1.29248       -2.51168
C         -5.77235        3.15324       -2.77405
C         -4.07952        3.29072       -0.96391
H         -4.79380        0.58712       -3.06432
H         -3.46309        1.79743       -3.23366
H         -3.49816        0.72961       -1.81269
H         -6.39087        3.92435       -2.26459
H         -5.07542        3.67899       -3.46529
H         -6.44459        2.51250       -3.38255
H         -4.69426        4.04563       -0.42520
H         -3.42682        2.77129       -0.24053
H         -3.40022        3.83085       -1.65765
