80
speciation65.ct
Mg         0.85912        0.00543        0.07785
C         -0.14788        0.08943       -2.77568
C         -0.54212        2.03812       -1.50337
O         -0.22546        0.65541       -1.46833
C          0.90321        0.75164       -3.68180
C         -1.98495        2.28558       -1.99942
H          0.04749       -0.98524       -2.68329
H         -1.13782        0.07391       -3.27387
H         -0.39868        2.43416       -0.48423
H          0.18584        2.63626       -2.07909
H         -2.71683        1.72819       -1.37399
H         -2.22108        3.36904       -1.96470
H         -2.12830        1.97665       -3.05228
H          1.87914        0.80430       -3.16265
H          1.00746        0.18156       -4.62554
H          0.59752        1.77822       -3.97389
H          3.51766        2.79728       -3.37842
C          5.53267        1.96131       -3.54345
C          4.36704        2.50319       -2.72577
C          6.00528        3.00270       -4.56793
H          6.36323        1.71274       -2.84710
H          5.21334        1.03583       -4.06726
H          5.17430        3.22981       -5.27101
H          6.29823        3.94309       -4.05029
C          7.20235        2.49375       -5.36463
H          4.70716        3.39334       -2.15456
H          8.06397        2.31033       -4.68774
H          6.94301        1.55180       -5.89225
H          7.49894        3.25437       -6.11789
C          0.13401       -1.78720        2.51617
C         -0.86058       -2.03381        3.43845
C         -1.85880       -1.13215        3.18402
C         -1.42813       -0.36848        2.11871
N         -0.21371       -0.77420        1.67958
C         -2.21516        0.76094        1.54973
N         -2.42244        1.77145        2.60035
C         -3.09541        3.02877        2.19508
H         -0.85759       -2.78807        4.21532
H          1.05426       -2.34070        2.48387
H         -2.79277       -1.03188        3.72144
H         -1.62425        1.17562        0.72690
H         -3.17129        0.36653        1.16701
C         -4.49590        2.75303        1.60673
C         -3.23205        3.90354        3.44630
C         -2.25333        3.82070        1.19039
H         -5.12108        2.20005        2.33899
H         -5.00525        3.70594        1.34863
H         -4.43420        2.15542        0.67282
H         -2.22881        4.09491        3.88736
H         -3.69002        4.88380        3.18793
H         -3.86530        3.40426        4.20769
H         -1.21908        3.98515        1.56219
H         -2.22224        3.27493        0.25976
H         -2.71938        4.79971        0.95034
Mg         3.63761        1.19797       -1.33798
C          3.72555        3.40777        3.08448
C          2.36835        3.17439        3.13124
C          2.11938        1.99637        2.43786
C          3.28515        1.53031        1.98947
N          4.34723        2.39156        2.34903
C          3.53449        0.19629        1.34871
N          2.92607       -0.07526        0.01579
C          3.36597       -1.44647       -0.46306
H          1.64985        3.78873        3.65632
H          4.24810        4.23106        3.55538
H          1.16246        1.50453        2.34794
H          3.18484       -0.54147        2.09452
H          4.63480        0.14810        1.27523
C          2.81018       -2.57951        0.42924
C          2.82873       -1.68717       -1.86768
C          4.90974       -1.62386       -0.55676
H          1.70724       -2.52054        0.44676
H          3.07730       -3.57798        0.02175
H          3.22530       -2.56019        1.45709
H          3.22107       -0.93496       -2.58068
H          3.11058       -2.69788       -2.23950
H          1.74141       -1.66159       -1.81660
H          5.35973       -0.87509       -1.24121
H          5.42204       -1.58691        0.42480
H          5.15042       -2.63677       -0.95234
