80
speciation70.ct
Mg         1.60868       -1.27189       -2.91557
C         -0.62032       -3.05228       -2.79739
C         -0.61783       -1.58443       -4.63859
O         -0.22459       -1.78205       -3.29302
C          0.01825       -4.25002       -3.51921
C         -0.18170       -0.20388       -5.10722
H         -0.32732       -3.09444       -1.72843
H         -1.72882       -3.14423       -2.80350
H         -0.15038       -2.31820       -5.32610
H         -1.72790       -1.62339       -4.71584
H          0.92681       -0.12981       -5.09361
H         -0.53539       -0.03503       -6.14706
H         -0.61524        0.58185       -4.45452
H          1.12236       -4.16508       -3.53103
H         -0.26008       -5.18631       -2.99202
H         -0.35106       -4.34550       -4.56033
H          6.25129        5.14802       -2.05578
C          7.63416        3.76797       -2.96262
C          6.87671        4.28215       -1.73535
C          6.64087        3.30918       -4.03201
H          8.28887        4.56530       -3.38901
H          8.27845        2.92404       -2.63942
H          5.92923        2.58997       -3.58129
H          6.07519        4.19114       -4.41131
C          7.33605        2.61768       -5.20006
H          7.61971        4.68223       -1.01101
H          8.05910        3.29762       -5.69799
H          7.87030        1.71349       -4.83741
H          6.57144        2.30035       -5.94074
C          3.16506        3.68881       -2.37759
C          1.97075        3.23467       -2.90773
C          1.90093        1.88751       -2.63023
C          3.06684        1.56830       -1.95100
N          3.83384        2.67296       -1.78606
C          3.44220        0.21158       -1.43866
N          3.48920       -0.74858       -2.52840
C          3.98077       -2.11670       -2.22588
H          1.22523        3.82232       -3.43131
H          3.51383        4.71162       -2.41278
H          1.09756        1.21641       -2.88836
H          2.70907       -0.11399       -0.67067
H          4.44814        0.30749       -1.04442
C          2.98919       -2.87893       -1.32157
C          4.07537       -2.85694       -3.57384
C          5.37393       -2.12788       -1.56800
H          1.98346       -2.90285       -1.77188
H          3.31291       -3.93525       -1.19129
H          2.90874       -2.41688       -0.31773
H          4.79822       -2.34628       -4.24655
H          4.41164       -3.90791       -3.43600
H          3.08956       -2.87107       -4.08694
H          6.11658       -1.61223       -2.21058
H          5.35204       -1.64971       -0.56902
H          5.70870       -3.17786       -1.41267
Mg         5.58561        2.71430       -0.78209
C          4.85387        0.74847        1.33187
C          5.23616       -0.28387        2.17271
C          6.59179       -0.42034        2.01525
C          6.97342        0.52807        1.08396
N          5.90454        1.23688        0.64335
C          8.38258        0.72792        0.63658
N          8.81957        2.11659        0.84402
C          9.03563        2.60628        2.22935
H          4.59888       -0.87123        2.82011
H          3.83356        1.09068        1.21883
H          7.22878       -1.13349        2.52461
H          9.06764        0.01054        1.13761
H          8.42985        0.50423       -0.44778
C          9.95583        1.67585        3.05017
C          9.71920        3.97559        2.09944
C          7.70397        2.81998        2.98215
H         10.92875        1.52927        2.53514
H         10.15607        2.11739        4.05085
H          9.48692        0.68583        3.22593
H          9.07926        4.66869        1.51035
H          9.90044        4.42815        3.09872
H         10.69413        3.87421        1.57566
H          7.02462        3.47646        2.39685
H          7.18807        1.87013        3.20220
H          7.88830        3.29293        3.97053
