95
speciation119.ct
Mg         1.22194        1.29900        0.59011
C          2.29716        3.65944        2.16210
C          1.16657        2.10251        3.58986
O          1.36915        2.57662        2.24832
C          3.63819        3.51303        2.92000
C          0.61724        3.10403        4.59011
H          2.52375        3.80486        1.08662
H          1.80113        4.59648        2.48921
H          0.40775        1.28780        3.54944
H          2.10067        1.67864        4.01422
H         -0.35978        3.49610        4.25085
H          0.48049        2.56828        5.55760
H          1.33609        3.92717        4.76418
H          4.19515        2.60722        2.67615
H          4.29497        4.36779        2.65730
H          3.50666        3.50043        4.01694
H          2.16169        2.70176       -1.28585
C          0.02420        2.83872       -1.82580
C          1.19776        2.16845       -1.15089
C         -0.29776        4.26910       -1.39895
H          0.25916        2.88522       -2.90072
H         -0.87022        2.18948       -1.71513
H          0.59489        4.91990       -1.53385
H         -1.09466        4.61733       -2.08415
C         -0.82721        4.36915        0.01905
H          1.26862        1.17527       -1.62828
H         -1.68725        3.68193        0.15750
H         -0.03848        4.13262        0.75378
H         -1.17747        5.40878        0.18989
C         -1.67423        0.50659        0.75761
C         -2.28738       -0.71800        0.56469
C         -1.27555       -1.63153        0.28378
C         -0.09777       -0.90865        0.29096
N         -0.34658        0.37561        0.61712
C          1.29309       -1.44812        0.00694
N          2.31888       -0.36037        0.03099
C          3.28679       -0.48505        1.13079
H         -3.33912       -0.92815        0.62058
H         -2.16713        1.44058        0.97686
H         -1.38672       -2.68201        0.07549
H          1.32278       -1.95778       -0.96774
H          1.46231       -2.23813        0.75469
C          3.99559       -1.86311        1.19555
C          4.12428        0.79458        0.91570
C          2.60967       -0.38318        2.47682
H          4.25440       -2.25442        0.20455
H          4.85909       -1.82703        1.90547
H          3.35506       -2.67004        1.61588
H          3.45202        1.66679        0.93951
H          4.95612        0.88622        1.63787
H          4.50948        0.91479       -0.10628
H          1.85232        0.33349        2.29733
H          2.05041       -1.28183        2.78822
H          3.34635       -0.11369        3.27088
Mg         3.44124        0.17366       -1.85555
C          2.66227        2.33856       -4.38478
C          1.51876        0.37067       -4.34155
O          2.51664        1.11906       -3.62488
C          3.58915        3.40112       -3.82039
C          1.43485       -1.06161       -3.88775
H          3.04521        2.11719       -5.40757
H          1.68022        2.85663       -4.51253
H          0.51125        0.83002       -4.21137
H          1.75650        0.30940       -5.43154
H          1.10140       -1.06691       -2.84670
H          0.67530       -1.58706       -4.50929
H          2.41682       -1.55499       -4.01174
H          4.61963        3.02177       -3.73830
H          3.60270        4.25910       -4.53705
H          3.23108        3.79984       -2.85611
C          9.67001       -0.74548        0.66104
C          9.31526        0.58421        0.60863
C          8.03167        0.65754        0.09838
C          7.63937       -0.58768       -0.16866
N          8.62140       -1.53211        0.16441
C          6.26653       -0.99250       -0.59921
N          5.63478       -0.30697       -1.76890
C          6.15892       -0.80254       -3.04653
H          9.93101        1.41198        0.93607
H         10.59977       -1.14619        1.03578
H          7.43555        1.55312       -0.02621
H          5.80109       -0.68871        0.28383
H          6.19296       -2.09119       -0.64494
C          5.80253       -2.28137       -3.26762
C          5.51544        0.03760       -4.15458
C          7.69305       -0.58216       -3.15279
H          4.70598       -2.43338       -3.14445
H          6.10582       -2.61509       -4.28466
H          6.33349       -2.94801       -2.55945
H          5.74325        1.11318       -4.00077
H          5.88322       -0.26071       -5.15793
H          4.42572       -0.11992       -4.13625
H          7.95153        0.47872       -2.91761
H          8.24998       -1.24311       -2.46283
H          8.07261       -0.82489       -4.16471
