80
speciation90.ct
Mg         0.81090       -1.05318       -0.40312
C         -0.47211       -3.07262       -2.31643
C         -0.50650       -3.98752       -0.11689
O          0.06691       -2.97487       -1.00716
C         -2.00927       -3.18150       -2.39700
C         -0.21019       -5.49148       -0.46554
H         -0.17173       -2.15313       -2.85266
H         -0.00070       -3.92163       -2.85973
H         -0.17667       -3.84141        0.92163
H         -1.60427       -3.86859       -0.02631
H          0.81400       -5.83295       -0.21519
H         -0.85948       -6.16063        0.14166
H         -0.40219       -5.74209       -1.52781
H         -2.48082       -2.37049       -1.80475
H         -2.33846       -3.11278       -3.45194
H         -2.37579       -4.16693       -2.02637
H          2.75520       -0.44664        3.80403
C          1.65915        1.37243        3.95624
C          2.70403        0.51061        3.25392
C          0.26965        0.79711        3.68740
H          1.87315        1.42705        5.04610
H          1.71140        2.40730        3.58409
H          0.11624        0.74427        2.58937
H          0.19534       -0.22885        4.10893
C         -0.82661        1.67380        4.27980
H          3.69958        0.99512        3.35521
H         -0.73734        1.71166        5.38554
H         -0.75827        2.70414        3.86859
H         -1.81804        1.25264        4.00987
C         -2.12849       -0.69129        0.85240
C         -2.89945        0.46156        0.91244
C         -2.15486        1.46415        0.35575
C         -0.97878        0.87438       -0.03701
N         -0.93334       -0.42972        0.26322
C          0.09000        1.54746       -0.80385
N          1.42181        1.15728       -0.31776
C          2.33554        2.37792       -0.33535
H         -3.90466        0.57329        1.29687
H         -2.44175       -1.66742        1.18019
H         -2.44602        2.50158        0.20811
H         -0.12467        2.63318       -0.81931
H          0.03189        1.22049       -1.85956
C          1.84058        3.46469        0.66591
C          3.74483        1.99538        0.11711
C          2.48545        3.04898       -1.72332
H          1.59013        3.00434        1.62321
H          2.61363        4.24644        0.84323
H          0.94615        4.02262        0.32820
H          4.20628        1.41689       -0.68386
H          4.39298        2.89191        0.24793
H          3.74949        1.44451        1.07090
H          2.90557        2.33926       -2.46373
H          1.52664        3.44866       -2.10581
H          3.18037        3.91851       -1.64422
Mg         2.18062        0.01681        1.17004
C          6.75913       -0.48738       -0.83079
C          6.75593       -1.01307       -2.10239
C          5.44950       -1.35174       -2.40552
C          4.69006       -1.04757       -1.36050
N          5.45842       -0.48803       -0.32199
C          3.21278       -1.28845       -1.26907
N          2.72760       -1.61427        0.09224
C          3.23978       -2.91602        0.65592
H          7.62171       -1.13741       -2.73286
H          7.61969       -0.12727       -0.28780
H          5.10117       -1.79220       -3.33164
H          2.86895       -2.02437       -2.02461
H          2.72493       -0.35973       -1.61051
C          4.77797       -2.98920        0.87078
C          2.57818       -3.10623        2.01911
C          2.96139       -4.10066       -0.28613
H          5.32400       -3.10170       -0.09424
H          5.04230       -3.91421        1.42634
H          5.18609       -2.13801        1.44363
H          1.48300       -3.08040        1.94520
H          2.89320       -4.05838        2.49413
H          2.88011       -2.27864        2.68070
H          1.93242       -4.13619       -0.54194
H          3.49620       -4.00909       -1.25451
H          3.26455       -5.06716        0.16986
