65
speciation19.ct
Mg         3.44077        1.12018       -1.65827
H          0.39858        0.22981       -1.43185
C          0.76420       -0.49960        0.57440
C          1.29653       -0.14225       -0.89069
C          0.16895        0.68879        1.36356
H         -0.05422       -1.26495        0.52160
H          1.57925       -0.96780        1.16865
H          0.92280        1.47568        1.41942
H         -0.72635        1.07721        0.83288
C         -0.24132        0.36787        2.81768
H          1.50355       -1.15002       -1.32119
H         -1.06865       -0.37190        2.87504
H          0.62102       -0.00866        3.40928
H         -0.59598        1.30234        3.31264
C          6.04651        3.35082       -0.85182
C          6.91605        4.32510       -1.28735
C          6.71159        4.50259       -2.60281
C          5.69722        3.60822       -2.94849
N          5.24689        2.88543       -1.87172
C          5.30256        3.40696       -4.32587
N          4.68962        2.11812       -4.35661
C          5.54351        0.87910       -4.33431
H          7.65884        4.87246       -0.67588
H          6.03263        3.01081        0.15790
H          7.21772        5.15571       -3.28062
H          6.14745        3.46161       -5.03457
H          4.54951        4.17620       -4.59603
C          6.50421        0.73399       -3.12256
C          4.58030       -0.32156       -4.28673
C          6.39782        0.78505       -5.61389
H          5.95587        0.65755       -2.16975
H          7.08377       -0.21098       -3.18956
H          7.25049        1.55320       -3.07182
H          3.91195       -0.31865       -5.16870
H          5.13979       -1.28127       -4.26006
H          3.95212       -0.26329       -3.37073
H          5.76100        0.82383       -6.51625
H          7.14724        1.60261       -5.65508
H          6.96904       -0.17201       -5.62134
Mg         3.58966        2.44691       -2.73116
C          4.76334       -0.74875        0.01242
C          5.36439       -0.41100        1.20161
C          4.98636        0.90485        1.48025
C          4.14732        1.29352        0.44525
N          4.14698        0.34402       -0.45400
C          3.29968        2.59940        0.20937
N          2.48971        2.77571       -1.10571
C          1.91203        4.15488       -1.19200
H          6.02159       -1.04969        1.77565
H          4.84898       -1.68481       -0.52758
H          5.31383        1.49371        2.32317
H          2.62897        2.62918        1.07332
H          3.94875        3.45887        0.39235
C          3.00123        5.25983       -1.30975
C          1.05054        4.23316       -2.45658
C          1.01626        4.47666        0.03039
H          3.63713        5.09711       -2.19960
H          2.52667        6.25877       -1.42160
H          3.65068        5.35112       -0.41835
H          0.22712        3.49063       -2.41508
H          0.60428        5.24819       -2.55915
H          1.67033        4.03565       -3.35735
H          0.21650        3.71464        0.14042
H          1.59809        4.52624        0.97376
H          0.54245        5.47539       -0.08345
