65
speciation10.ct
Mg         4.17000       -1.68783        0.20750
H          5.48267       -3.83619        0.99380
C          4.75413       -4.27534       -1.01711
C          4.57249       -3.68056        0.37676
C          5.93848       -3.66458       -1.78057
H          4.92756       -5.36789       -0.91291
H          3.81928       -4.12406       -1.59939
H          6.88016       -3.83215       -1.21493
H          6.02272       -4.18281       -2.76024
C          5.76958       -2.17148       -2.05123
H          3.70714       -4.16516        0.87590
H          4.83708       -1.99092       -2.62756
H          5.74349       -1.60039       -1.10239
H          6.63062       -1.79955       -2.64479
C          3.00141        4.03061       -1.65765
C          1.78651        3.65418       -2.19383
C          1.75537        2.27656       -2.16780
C          2.95584        1.87631       -1.61373
N          3.71514        2.94309       -1.31112
C          3.37276        0.46858       -1.35555
N          3.77737        0.25605        0.04239
C          2.75379        0.39372        1.11990
H          1.00902        4.31223       -2.55779
H          3.34772        5.04712       -1.52703
H          0.94778        1.64044       -2.50509
H          4.25773        0.27361       -1.99235
H          2.58331       -0.25037       -1.65695
C          1.55757       -0.54853        0.88658
C          3.43551       -0.01488        2.44067
C          2.25322        1.84437        1.30503
H          1.90393       -1.59917        0.78250
H          0.85204       -0.49636        1.74479
H          0.99197       -0.26322       -0.02458
H          4.28307        0.66032        2.67345
H          2.72360        0.05238        3.29242
H          3.81611       -1.05536        2.38464
H          3.10813        2.54389        1.43192
H          1.61675        2.18344        0.47041
H          1.60650        1.92059        2.20569
Mg         5.52681        2.99685       -0.48949
C          7.31862        4.80352       -3.57100
C          6.58576        5.86311       -3.07854
C          6.68274        5.82818       -1.70102
C          7.44683        4.78738       -1.36308
N          7.88741        4.08483       -2.50561
C          7.81658        4.41116        0.04042
N          7.33847        3.05060        0.33214
C          7.54501        2.59741        1.73097
H          6.04286        6.58708       -3.67247
H          7.44577        4.55838       -4.61526
H          6.22656        6.52857       -1.01359
H          7.35298        5.15055        0.72290
H          8.92041        4.46807        0.12427
C          6.71766        3.44951        2.72169
C          7.08515        1.13681        1.81594
C          9.03863        2.65069        2.13670
H          5.64789        3.44775        2.44204
H          6.82342        3.04825        3.75365
H          7.08327        4.49556        2.76297
H          7.74600        0.47947        1.21200
H          7.10481        0.77618        2.86852
H          6.05926        1.04222        1.41626
H          9.65431        2.04670        1.43161
H          9.43302        3.68731        2.14235
H          9.18405        2.24329        3.16051
