65
speciation13.ct
Mg         1.37817        1.50015       -0.00991
H          1.65683        2.29152        2.69307
C          0.77789        4.05750        2.05637
C          1.66254        2.84940        1.74615
C         -0.70174        3.72655        2.31684
H          1.18527        4.55126        2.96944
H          0.84177        4.77722        1.21720
H         -1.21432        4.67710        2.57767
H         -1.15637        3.34185        1.39064
C         -0.95271        2.72905        3.45369
H          2.69574        3.23172        1.62509
H         -0.56031        1.72134        3.20020
H         -0.49162        3.07849        4.40179
H         -2.04935        2.62912        3.61754
C         -1.61712        0.90453        0.04757
C         -2.27606       -0.30431       -0.00127
C         -1.31021       -1.28942       -0.07661
C         -0.09796       -0.63395       -0.06519
N         -0.28493        0.69370        0.02402
C          1.26628       -1.28436       -0.13819
N          2.36292       -0.29013        0.01980
C          3.29320       -0.57602        1.14718
H         -3.34623       -0.45182        0.00569
H         -2.08533        1.87526        0.07698
H         -1.47380       -2.35878       -0.13298
H          1.37099       -1.79959       -1.11271
H          1.28423       -2.06756        0.64289
C          3.99328       -1.95290        1.02289
C          4.39343        0.49468        1.10927
C          2.55017       -0.55183        2.50358
H          4.54533       -2.04049        0.06597
H          4.71699       -2.08803        1.86001
H          3.28244       -2.80115        1.09402
H          3.96898        1.50992        1.14496
H          5.10112        0.37474        1.95773
H          4.97216        0.40813        0.16302
H          1.88544        0.30510        2.56614
H          1.89176       -1.43059        2.63982
H          3.26314       -0.53366        3.35482
Mg         3.42727       -0.34640       -1.61625
C          2.32755        3.53104       -2.06022
C          2.25183        3.91292       -3.38550
C          1.40502        3.02778       -4.00554
C          0.98582        2.13983       -3.02090
N          1.53997        2.46102       -1.82004
C          0.07015        0.98033       -3.25300
N          0.02762        0.61778       -4.68312
C         -0.81038       -0.55248       -5.02985
H          2.76353        4.74040       -3.86509
H          2.93316        4.01773       -1.30911
H          1.11923        3.03155       -5.05126
H          0.48893        0.14206       -2.67507
H         -0.93678        1.25570       -2.87395
C         -2.30232       -0.19821       -4.90287
C         -0.51802       -0.91916       -6.49820
C         -0.48030       -1.78875       -4.15906
H         -2.54456        0.67281       -5.54920
H         -2.93627       -1.05559       -5.21518
H         -2.56987        0.05431       -3.85682
H          0.55605       -1.17221       -6.63240
H         -1.12232       -1.79866       -6.81405
H         -0.76228       -0.07167       -7.17319
H          0.59958       -2.04186       -4.23642
H         -0.73678       -1.62289       -3.09321
H         -1.07076       -2.66987       -4.49311
