80
speciation64.ct
Mg         1.10592        0.06751        0.16358
C         -0.35781        2.16997       -0.86408
C         -0.05545        2.36094        1.49963
O         -0.17468        1.49806        0.37104
C          0.70742        3.22321       -1.18395
C         -1.36380        3.09263        1.82616
H         -0.30635        1.39336       -1.65501
H         -1.38267        2.59383       -0.93685
H          0.18212        1.74787        2.39022
H          0.78234        3.07555        1.40146
H         -2.18001        2.36417        2.01839
H         -1.22370        3.71525        2.73607
H         -1.66613        3.77115        1.00241
H          1.71947        2.77666       -1.09373
H          0.55924        3.59334       -2.21890
H          0.62033        4.10135       -0.51073
H          5.68085       -4.23572        3.79527
C          6.11866       -2.38433        4.81638
C          5.73601       -3.15179        3.55748
C          5.09506       -2.62825        5.93132
H          7.11937       -2.73533        5.15230
H          6.17524       -1.30009        4.58227
H          4.09769       -2.26701        5.60642
H          5.02329       -3.71692        6.14951
C          5.49414       -1.90339        7.21302
H          6.49914       -3.00666        2.76417
H          6.47097       -2.28439        7.58120
H          5.57265       -0.81091        7.03063
H          4.72719       -2.08102        7.99636
C         -1.08534       -1.83070       -0.64465
C         -1.53065       -3.13311       -0.53517
C         -0.54551       -3.83654        0.11671
C          0.46568       -2.93343        0.37370
N          0.13901       -1.69630       -0.08708
C          1.70020       -3.26025        1.15832
N          2.15564       -2.15005        2.00238
C          1.27106       -1.69216        3.12675
H         -2.48843       -3.52340       -0.86046
H         -1.65027       -1.00991       -1.07064
H         -0.57497       -4.87947        0.39984
H          1.56760       -4.18948        1.75166
H          2.50767       -3.47415        0.43052
C          1.06639       -2.80087        4.17135
C          1.96866       -0.48480        3.77180
C         -0.13772       -1.19989        2.70161
H          2.03254       -3.16891        4.55820
H          0.45957       -2.41208        5.02230
H          0.49726       -3.64730        3.73108
H          2.08031        0.32605        3.02235
H          1.37263       -0.08234        4.62092
H          2.97655       -0.75858        4.14047
H         -0.06344       -0.40847        1.94266
H         -0.78813       -2.01571        2.33300
H         -0.68668       -0.76055        3.56145
Mg         3.92361       -2.64471        2.77028
C          3.70206       -0.93726       -0.56371
C          5.07225       -0.86900       -0.46122
C          5.35235        0.20963        0.34367
C          4.13700        0.77165        0.68264
N          3.11781        0.06070        0.13428
C          3.99397        1.97400        1.57043
N          5.07972        2.92539        1.27249
C          5.12388        4.16671        2.07727
H          5.79336       -1.53655       -0.91023
H          3.15181       -1.68386       -1.11805
H          6.33381        0.55211        0.64230
H          2.99956        2.42401        1.39516
H          4.07901        1.62396        2.61699
C          5.27163        3.87706        3.58883
C          6.36286        4.96387        1.62504
C          3.87197        5.02285        1.81704
H          6.18625        3.27633        3.78607
H          5.35681        4.82939        4.15773
H          4.39412        3.33540        3.99461
H          6.31389        5.17940        0.53624
H          6.43448        5.93189        2.16907
H          7.29491        4.38962        1.82124
H          3.77371        5.23118        0.72992
H          2.95280        4.51290        2.16832
H          3.94180        5.99048        2.35858
