80
speciation76.ct
Mg         1.22603        1.83717        0.27268
C         -0.63579        2.79085        2.46663
C          1.61365        3.23695        3.09950
O          0.74727        2.53143        2.19152
C         -1.08401        4.26384        2.38936
C          1.45580        2.88941        4.59166
H         -1.24136        2.23476        1.74370
H         -0.93708        2.35352        3.44197
H          2.66159        3.05077        2.82952
H          1.48500        4.32490        3.03009
H          1.69913        1.82836        4.79273
H          2.14872        3.53029        5.18254
H          0.43872        3.12164        4.97115
H         -0.90578        4.67150        1.38146
H         -2.17879        4.32905        2.57057
H         -0.60172        4.89717        3.15816
H          5.42588        0.78542       -3.11127
C          3.94789        0.47607       -4.67165
C          4.54792        0.13496       -3.30961
C          2.84855       -0.50698       -5.08999
H          3.54981        1.50811       -4.66001
H          4.75882        0.42667       -5.43173
H          2.48080       -0.21767       -6.09775
H          3.26669       -1.53619       -5.15650
C          1.67487       -0.50370       -4.11850
H          4.93109       -0.90690       -3.35099
H          2.01644       -0.84643       -3.12606
H          1.24780        0.51696       -4.02807
H          0.88848       -1.19958       -4.47747
C         -1.71763        1.06283       -0.51367
C         -2.29861       -0.17410       -0.74908
C         -1.28989       -1.10671       -0.67626
C         -0.13877       -0.40177       -0.40030
N         -0.39730        0.91326       -0.28091
C          1.21564       -1.00946       -0.22545
N          2.24500        0.03300       -0.00400
C          3.17077       -0.33089        1.15749
H         -3.34504       -0.38464       -0.93001
H         -2.25025        2.00268       -0.46440
H         -1.37758       -2.18033       -0.79265
H          1.49177       -1.60150       -1.11670
H          1.12469       -1.73927        0.59673
C          3.96369       -1.61951        0.84830
C          4.25002        0.73596        1.44478
C          2.39836       -0.49144        2.49739
H          4.55241       -1.48621       -0.08611
H          4.67997       -1.84422        1.67178
H          3.30471       -2.49934        0.72928
H          3.79664        1.71315        1.66743
H          4.85480        0.47560        2.34180
H          5.00121        0.79474        0.62997
H          1.77372        0.39497        2.69426
H          1.75760       -1.38898        2.54507
H          3.10341       -0.59942        3.35228
Mg         3.38218        0.08335       -1.63630
C          1.48477        6.62269        1.40552
C          1.04902        7.48054        0.42757
C          0.72205        6.72056       -0.68548
C          0.94720        5.44808       -0.38260
N          1.42488        5.31108        0.92333
C          0.78727        4.28682       -1.30799
N          1.87200        3.32565       -1.12221
C          3.26835        3.78278       -1.47303
H          0.97498        8.55383        0.52553
H          1.82906        6.88815        2.39688
H          0.35894        7.08754       -1.63398
H          0.69699        4.60712       -2.36616
H         -0.14752        3.75760       -1.03693
C          3.88835        4.85732       -0.54058
C          4.12951        2.58904       -1.34331
C          3.38424        4.25062       -2.94135
H          3.85172        4.53349        0.52165
H          4.96240        5.01245       -0.79444
H          3.42077        5.84819       -0.67080
H          3.70037        1.87421       -2.01967
H          5.21362        2.75464       -1.53139
H          3.97192        2.26625       -0.34312
H          3.00013        3.46548       -3.62509
H          2.82718        5.18759       -3.12253
H          4.45421        4.42910       -3.20534
