54
speciation37.ct
Mg         0.97960        0.23651       -0.16363
C         -0.30191        0.74945       -2.42387
C         -1.72784       -0.29235       -0.83052
O         -0.42222       -0.22228       -1.39944
C         -0.67241        2.17324       -1.99634
C         -2.80347       -0.79164       -1.79769
H          0.76941        0.77249       -2.71145
H         -0.84773        0.44042       -3.33988
H         -1.70048       -1.03636       -0.01452
H         -2.04694        0.66881       -0.38461
H         -2.53979       -1.79777       -2.18376
H         -3.77170       -0.86194       -1.25532
H         -2.94555       -0.08855       -2.64249
H         -0.12331        2.44570       -1.07415
H         -0.39961        2.88277       -2.80249
H         -1.76301        2.27607       -1.82168
H          0.52318        1.13427        2.40503
C         -0.28358       -0.84609        2.56257
C         -0.00709        0.41927        1.75143
C          1.00686       -1.49762        3.05408
H         -0.90277       -0.56266        3.44275
H         -0.85925       -1.57269        1.95505
H          1.62921       -1.80092        2.18456
H          1.57831       -0.77045        3.67167
C          0.69442       -2.72414        3.90952
H         -0.97707        0.89963        1.52541
H          0.08847       -2.43202        4.79548
H          0.12799       -3.47490        3.31798
H          1.63898       -3.18492        4.26413
C          3.52276       -3.84175       -1.44639
C          2.34903       -3.42292       -2.03618
C          2.33950       -2.04090       -1.99782
C          3.46004       -1.63306       -1.40154
N          4.26914       -2.72872       -1.02768
C          3.86819       -0.20607       -1.22110
N          3.01512        0.51664       -0.24850
C          3.47666        1.90640        0.03279
H          1.59158       -4.06005       -2.46385
H          3.83499       -4.86976       -1.32705
H          1.58087       -1.40063       -2.41126
H          3.85025        0.27192       -2.22157
H          4.91364       -0.23210       -0.85793
C          3.53271        2.77698       -1.24686
C          2.48170        2.55424        0.99833
C          4.85874        1.90859        0.73061
H          2.53746        2.82202       -1.73732
H          3.84582        3.81457       -0.99558
H          4.27643        2.40076       -1.97850
H          2.46998        1.99319        1.95263
H          2.77422        3.60358        1.22546
H          1.46687        2.56937        0.55819
H          4.82175        1.28484        1.65054
H          5.67218        1.53252        0.08027
H          5.14620        2.94173        1.02347
