80
speciation88.ct
Mg         0.98348        1.90748        0.39866
C          0.42182        3.71629       -2.66968
C         -0.86809        1.77251       -2.78967
O         -0.03105        2.58122       -1.86744
C         -0.64167        4.73900       -2.86305
C         -0.33014        1.32082       -4.22061
H          1.26731        4.22135       -2.19735
H          0.93014        3.47712       -3.64661
H         -1.22594        0.84398       -2.30823
H         -1.79847        2.34591       -3.00420
H          0.40541        0.49245       -4.16846
H         -1.17995        0.95379       -4.85257
H          0.08936        2.09989       -4.89198
H         -1.29257        4.64920       -1.97977
H         -0.15860        5.73618       -2.90152
H         -1.20044        4.53117       -3.80267
H          2.46076       -1.08310        3.84965
C          1.99034        0.96592        4.11948
C          2.72034       -0.14803        3.33583
C          0.53355        0.94892        3.73168
H          2.14281        0.82124        5.20878
H          2.32025        2.00270        3.92948
H          0.45791        1.10010        2.63194
H          0.11588       -0.04580        3.98812
C         -0.19441        2.08727        4.44462
H          3.80284       -0.20137        3.53972
H         -0.06394        1.99611        5.54325
H          0.23103        3.06422        4.12210
H         -1.27389        2.07940        4.19961
C          4.39019        2.09558        2.73534
C          5.55122        2.63619        2.18809
C          5.16888        3.25000        1.05077
C          3.83952        2.98281        0.97644
N          3.33250        2.15765        1.79084
C          2.82663        3.09207        0.13088
N          2.66694        1.64131       -0.15871
C          3.31089        1.26787       -1.42015
H          6.58878        2.59029        2.54305
H          4.49038        1.62625        3.69662
H          5.73249        3.75382        0.28938
H          2.26069        3.91369       -0.31603
H          1.94068        3.39308        0.84841
C          4.83329        1.35390       -1.51839
C          2.81870       -0.10321       -1.67994
C          2.84168        2.19051       -2.43280
H          5.37764        0.79190       -0.74100
H          5.08459        0.96194       -2.52807
H          5.16831        2.41460       -1.51908
H          1.71899       -0.03913       -1.51681
H          2.99515       -0.47526       -2.69389
H          3.37134       -0.71450       -0.95155
H          1.89359        2.09226       -2.13854
H          3.19737        3.23118       -2.24258
H          2.83157        1.84808       -3.45642
Mg         2.37326       -0.12458        0.98521
C         -1.58179        0.77615        0.47223
C         -2.55679       -0.18077        0.30817
C         -1.90164       -1.33341       -0.03341
C         -0.55022       -1.03683       -0.07949
N         -0.32939        0.26542        0.27331
C          0.44036       -2.02609       -0.65232
N          1.76533       -1.93278       -0.02386
C          2.28103       -2.99265        0.82299
H         -3.63183       -0.04176        0.38204
H         -1.79668        1.81911        0.68676
H         -2.36674       -2.27344       -0.29542
H          0.03147       -3.05595       -0.70227
H          0.55719       -1.77450       -1.73262
C          2.35971       -4.44141        0.21042
C          3.73858       -2.56130        1.09650
C          1.41060       -2.91926        2.06624
H          3.10216       -4.52751       -0.61862
H          2.72944       -5.13350        1.00521
H          1.41878       -4.88751       -0.17097
H          3.79161       -1.53241        1.49138
H          4.26445       -3.23741        1.79235
H          4.31092       -2.52375        0.13750
H          1.37541       -1.86911        2.34933
H          0.34352       -3.10256        1.83706
H          1.77459       -3.54572        2.89823
