95
speciation123.ct
Mg         1.30401        0.98047        0.23216
C         -1.34404        1.65155        1.90459
C          0.54448        0.96909        3.18478
O         -0.00002        1.17119        1.86990
C         -1.55955        2.92124        2.74886
C         -0.17599       -0.04994        4.08690
H         -1.64315        1.89383        0.86720
H         -2.03173        0.84790        2.25279
H          1.56851        0.59297        3.08346
H          0.64633        1.93074        3.72450
H         -0.18659       -1.06254        3.64139
H          0.37031       -0.11732        5.05575
H         -1.21137        0.26419        4.32639
H         -0.88923        3.73390        2.40346
H         -2.61533        3.25157        2.65495
H         -1.39003        2.73888        3.83274
H         -0.54626        1.00503       -2.00219
C          0.79956        0.88366       -3.71903
C          0.47860        1.30870       -2.17159
C          1.50382       -0.42050       -4.36890
H         -0.09724        1.08301       -4.32607
H          1.48904        1.69273       -4.03952
H          1.79046       -0.08676       -5.40391
H          2.41934       -0.69853       -3.91462
C          0.98678       -1.83840       -4.61357
H          0.36299        2.41200       -2.18360
H          1.03938       -2.46311       -3.69949
H          0.00492       -1.83432       -5.11777
H          1.71187       -2.37618       -5.27391
C          3.89556        3.19317       -3.14910
C          4.18300        2.32112       -4.14845
C          3.94216        1.07742       -3.64757
C          3.36518        1.18902       -2.37113
N          3.48213        2.57382       -2.04900
C          2.84850       -0.18815       -1.54479
N          1.42193       -0.41559       -0.93102
C          0.35594       -1.53397       -0.75605
H          4.56391        2.57804       -5.13112
H          4.00990        4.26079       -3.22328
H          4.16432        0.20552       -4.24162
H          3.54758       -0.20411       -0.76178
H          3.15174       -1.11245       -2.07099
C          0.89432       -2.97286       -0.63279
C         -0.43447       -1.26462        0.53401
C         -0.82216       -1.55808       -1.80491
H          1.43680       -3.15875        0.29927
H          0.03420       -3.67909       -0.52780
H          1.48114       -3.28171       -1.50895
H         -0.99384       -0.32142        0.40895
H         -1.22160       -2.03004        0.72913
H          0.22754       -1.23456        1.41316
H         -1.52303       -0.71235       -1.75808
H         -0.56833       -1.66459       -2.82993
H         -1.50690       -2.41303       -1.59128
Mg         3.38611        4.21353       -0.66684
C          5.76994        5.93751       -0.44613
C          3.86144        7.30717       -0.48246
O          4.36172        5.98841       -0.69307
C          6.22202        6.35367        0.97476
C          2.37477        7.40155       -0.76055
H          6.09187        4.88859       -0.59601
H          6.31925        6.54353       -1.20254
H          4.00305        7.65030        0.56910
H          4.36692        8.01588       -1.18085
H          1.81631        6.78329       -0.04702
H          2.04784        8.46484       -0.62663
H          2.15333        7.07234       -1.79622
H          5.68329        5.77206        1.74959
H          7.31282        6.17050        1.08727
H          6.07979        7.44140        1.16260
C          2.47448        4.99966        2.16303
C          2.45647        4.32554        3.36578
C          2.95253        3.06539        3.12493
C          3.25372        3.02859        1.78720
N          2.96248        4.19278        1.20584
C          3.78482        1.89904        0.99381
N          3.14202        0.64578        1.27085
C          4.02456       -0.43597        1.84894
H          2.10269        4.70294        4.30767
H          2.16382        6.01808        2.00416
H          3.05957        2.27955        3.84329
H          4.86188        1.89587        0.74430
H          3.30084        2.11539        0.07164
C          4.62278        0.03411        3.17908
C          3.18179       -1.68605        2.10820
C          5.21525       -0.89634        0.92537
H          3.82431        0.24082        3.91076
H          5.27062       -0.76135        3.61327
H          5.25200        0.93345        3.02261
H          2.89095       -2.06788        1.12772
H          3.76861       -2.48359        2.61220
H          2.27910       -1.47947        2.70931
H          4.90217       -1.47366        0.03448
H          5.86530       -0.06161        0.61703
H          5.84819       -1.62957        1.47392
