80
speciation54.ct
Mg         1.13828        0.44261       -0.50789
C          0.45122        0.76978       -3.71565
C         -1.15859       -0.22413       -2.32480
O          0.21235        0.15204       -2.42174
C         -0.25925        2.06732       -4.05085
C         -1.57808       -1.37896       -3.25251
H          1.49819        1.02532       -3.87295
H          0.27681        0.04443       -4.53420
H         -1.33371       -0.60053       -1.30439
H         -1.83107        0.64445       -2.48115
H         -0.99018       -2.29285       -3.03050
H         -2.65538       -1.59884       -3.09025
H         -1.48104       -1.12945       -4.32790
H         -0.06954        2.82309       -3.26822
H          0.17107        2.43379       -5.01391
H         -1.33862        1.90529       -4.22244
H          0.87590       -2.17590        0.48181
C         -0.90373       -1.62187        1.48694
C          0.50110       -1.25697        0.97314
C         -0.99988       -2.84661        2.40880
H         -1.27299       -0.82142        2.12985
H         -1.55819       -1.79071        0.60951
H         -0.63070       -3.75961        1.89739
H         -0.39896       -2.68145        3.33167
C         -2.46982       -3.05176        2.80944
H          1.13233       -1.05249        1.86841
H         -2.86153       -2.15235        3.33584
H         -3.09273       -3.22238        1.90423
H         -2.57990       -3.92477        3.48442
C          2.65031        4.09668       -3.11126
C          2.35017        5.38253       -2.71737
C          1.86735        5.29968       -1.43271
C          1.89670        3.96323       -1.07991
N          2.38316        3.22437       -2.12058
C          1.43760        3.46235        0.28894
N          0.45409        2.35829        0.26543
C         -0.91689        2.80877        0.70437
H          2.45358        6.28344       -3.30748
H          3.01909        3.80874       -4.08597
H          1.53090        6.12543       -0.81947
H          2.26190        3.14820        0.94359
H          1.07534        4.35199        0.83286
C         -1.47435        3.91866       -0.21054
C         -1.91114        1.66453        0.63308
C         -0.91686        3.27621        2.19238
H         -1.54740        3.55039       -1.25572
H         -2.49290        4.21423        0.12754
H         -0.85232        4.83238       -0.19421
H         -1.61182        0.93062        1.35412
H         -2.93874        1.98248        0.91504
H         -1.95842        1.24008       -0.36788
H         -0.52500        2.47147        2.85373
H         -0.32380        4.18885        2.38298
H         -1.95158        3.51265        2.52705
Mg         2.51979        1.26386       -2.43339
C          2.48643       -1.35526       -3.92755
C          2.71895       -2.69916       -3.78542
C          3.10701       -2.90865       -2.49187
C          3.06902       -1.65844       -1.89038
N          2.65642       -0.69664       -2.74620
C          3.52821       -1.37846       -0.53240
N          3.39371        0.06187       -0.28492
C          4.68331        0.81414       -0.59072
H          2.66907       -3.45086       -4.57472
H          2.23787       -0.89077       -4.86303
H          3.39949       -3.84430       -2.04299
H          4.56238       -1.75752       -0.44467
H          2.96017       -1.96318        0.20286
C          5.04522        0.89361       -2.10899
C          4.49955        2.18507       -0.02147
C          5.95668        0.29064        0.12778
H          4.30198        1.34867       -2.77345
H          5.93961        1.53558       -2.25317
H          5.30002       -0.11061       -2.50966
H          4.35775        2.15508        1.08070
H          5.27511        2.91819       -0.31395
H          3.59907        2.46995       -0.44694
H          5.80814        0.22304        1.22419
H          6.33337       -0.67071       -0.26612
H          6.79284        1.01018       -0.05242
