95
speciation104.ct
Mg         0.93751       -0.34612       -0.28473
C         -1.12812       -0.61139        2.00895
C         -0.43386        1.60491        1.43136
O         -0.21818        0.21100        1.26784
C         -2.64470       -0.28030        1.95920
C         -0.15136        2.12134        2.84695
H         -1.02138       -1.63719        1.63998
H         -0.80819       -0.64016        3.07144
H          0.24416        2.14147        0.73694
H         -1.45652        1.87268        1.13818
H          0.89151        1.89560        3.14679
H         -0.85491        1.67838        3.58234
H         -0.30141        3.22442        2.87196
H         -3.09477       -0.31079        0.95455
H         -3.19582       -1.05151        2.53495
H         -2.87635        0.70162        2.41925
H          2.69446        1.70750        0.40774
C          4.28879        0.51249       -0.44843
C          2.94785        0.63303        0.32928
C          4.04201        0.95695       -1.87971
H          5.09961        1.11961        0.00596
H          4.66802       -0.52930       -0.42054
H          3.12668        0.48133       -2.16640
H          3.88115        2.05268       -1.91823
C          5.08009        0.49384       -2.89528
H          3.13787        0.24001        1.35320
H          6.08124        0.90170       -2.66728
H          5.11516       -0.61866       -2.92795
H          4.76990        0.84063       -3.90410
C          1.78161        3.41633       -4.29046
C          2.56359        2.76033       -5.22349
C          2.34890        1.41757       -5.03667
C          1.46081        1.31917       -3.99243
N          1.09214        2.52662       -3.54017
C          0.94100        0.06434       -3.39999
N          0.06276        0.34561       -2.24053
C         -1.34150       -0.02080       -2.58227
H          3.21888        3.21163       -5.95773
H          1.74137        4.48614       -4.19380
H          2.80112        0.60275       -5.58830
H          1.75794       -0.58617       -3.10919
H          0.46604       -0.51679       -4.22251
C         -1.54197       -1.54695       -2.71619
C         -2.18716        0.44813       -1.45235
C         -1.85649        0.71296       -3.86303
H         -1.23401       -2.04099       -1.78020
H         -2.61947       -1.77291       -2.88197
H         -0.98214       -1.98596       -3.56228
H         -2.08983        1.52455       -1.42844
H         -3.26078        0.18502       -1.55935
H         -1.75285        0.02441       -0.54951
H         -1.71179        1.81235       -3.76394
H         -1.35835        0.39722       -4.79952
H         -2.94209        0.52635       -4.01291
Mg        -0.23551        2.39893       -2.05762
C          2.60159       -2.58456       -0.86633
C          0.49346       -3.42201       -0.21382
O          1.39248       -2.31734       -0.17181
C          2.47676       -3.14851       -2.28573
C          1.03851       -4.66189        0.51697
H          3.05172       -1.61995       -1.01363
H          3.31350       -3.17929       -0.24741
H         -0.44114       -3.14574        0.29198
H          0.21571       -3.68576       -1.25194
H          1.24260       -4.43480        1.58421
H          0.29054       -5.48094        0.45989
H          1.97058       -5.04156        0.04741
H          1.68900       -2.62116       -2.84085
H          3.44766       -3.02133       -2.81166
H          2.21361       -4.22121       -2.28148
C         -2.58128        3.63079       -0.20625
C         -2.88257        4.80456        0.45161
C         -1.86540        5.67541        0.17245
C         -0.99295        4.99559       -0.65830
N         -1.39628        3.72670       -0.86940
C          0.18456        5.57612       -1.32002
N          0.04458        5.43313       -2.77904
C         -0.99160        6.20721       -3.51144
H         -3.76281        5.00217        1.05029
H         -3.22395        2.76282       -0.17106
H         -1.78481        6.70524        0.49601
H          0.34505        6.63183       -1.02670
H          1.07854        4.99952       -0.99600
C         -0.81388        7.71843       -3.28561
C         -0.80212        5.89307       -5.00474
C         -2.43604        5.78474       -3.15705
H          0.20832        8.03470       -3.58427
H         -1.55465        8.29064       -3.88289
H         -0.97238        7.98410       -2.22018
H         -0.90979        4.79941       -5.18297
H         -1.56545        6.41842       -5.61984
H          0.20417        6.20527       -5.35300
H         -2.56791        4.68683       -3.27515
H         -2.73146        6.08891       -2.14278
H         -3.16428        6.29581       -3.82165
