95
speciation152.ct
Mg         2.40502       -0.06912        1.38323
C          5.18145        0.01410        0.12841
C          5.56811       -1.03791        2.17838
O          4.63899       -0.19384        1.46196
C          6.60841        0.64926        0.04152
C          5.15476       -1.40465        3.60571
H          5.20954       -0.91773       -0.47043
H          4.50000        0.68564       -0.42563
H          5.79123       -1.97536        1.62292
H          6.52560       -0.49651        2.33536
H          4.21574       -1.98824        3.66691
H          5.94962       -2.02720        4.06567
H          5.10381       -0.50339        4.23251
H          7.40268       -0.04412        0.38523
H          6.85639        0.89114       -1.01729
H          6.71914        1.58113        0.62786
H          1.25919        2.77404       -3.44922
C         -0.68712        2.06263       -4.15229
C          0.52067        1.97492       -3.24198
C         -1.77839        1.04891       -3.78340
H         -1.12187        3.08387       -4.08353
H         -0.33332        1.87686       -5.18688
H         -1.38459        0.00654       -3.76014
H         -2.18531        1.30055       -2.78659
C         -2.91856        1.12771       -4.78908
H          0.97326        0.96547       -3.27370
H         -3.26395        2.17902       -4.88616
H         -2.56732        0.76499       -5.77802
H         -3.77148        0.50196       -4.45277
C         -0.50787        4.89576       -0.23194
C         -0.61660        5.11652        1.15799
C         -0.38429        3.93314        1.72049
C         -0.01347        3.07643        0.68608
N         -0.26595        3.59033       -0.48174
C          0.87494        1.76548        0.48532
N          2.24981        1.78392        0.32618
C          2.91392        2.97661        0.99791
H         -0.72845        6.03947        1.69825
H         -0.50996        5.69133       -0.95340
H         -0.31675        3.74807        2.81156
H          1.41253        2.08239       -0.45293
H          0.70399        0.83903        0.05032
C          2.37346        3.12361        2.40930
C          4.39724        2.82455        1.28628
C          2.81529        4.18609        0.02567
H          2.81891        2.34993        3.03661
H          2.40415        4.11041        2.88544
H          1.42377        2.73343        2.45508
H          4.95223        2.72462        0.35333
H          4.74984        3.72847        1.82971
H          4.60027        1.99121        1.98306
H          3.43102        3.96953       -0.87452
H          1.86966        4.36566       -0.45046
H          3.10325        5.13829        0.50358
Mg         0.19344        2.04896       -1.42766
C          1.28903        0.91042        4.35928
C          0.78864       -1.28616        4.25795
O          1.08063       -0.13973        3.38814
C          2.62662        0.79491        5.05232
C         -0.54431       -1.22465        5.04842
H          1.00891        1.89833        4.08030
H          0.49920        1.06734        5.09631
H          0.60919       -2.26789        3.84248
H          1.67453       -1.53854        4.86413
H         -1.39371       -1.52354        4.39970
H         -0.44745       -1.93671        5.89337
H         -0.85644       -0.28123        5.51658
H          3.29971        0.43100        4.27469
H          2.98060        1.76430        5.44128
H          2.56312        0.06925        5.89202
C         -2.41361        0.92952       -0.04283
C         -2.97956       -0.18279        0.53144
C         -2.11100       -1.23017        0.30816
C         -1.02571       -0.72265       -0.39115
N         -1.24384        0.60378       -0.63525
C          0.19917       -1.57920       -0.81725
N          1.55802       -1.50769       -0.12028
C          1.92943       -2.83091        0.47991
H         -3.91027       -0.22029        1.08313
H         -2.81227        1.93654        0.00126
H         -2.24256       -2.24574        0.65366
H         -0.21742       -2.58844       -0.69796
H          0.34413       -1.49815       -1.90898
C          1.93548       -4.06535       -0.44094
C          3.32545       -2.73978        1.05909
C          0.99831       -3.03442        1.62384
H          2.74765       -3.99795       -1.19268
H          2.13361       -4.96330        0.19237
H          0.97969       -4.25657       -0.94894
H          3.28045       -1.91627        1.76778
H          3.63675       -3.63731        1.63831
H          4.06770       -2.57233        0.25921
H          1.12463       -2.04520        2.03556
H         -0.07577       -3.11015        1.39628
H          1.30594       -3.85610        2.30687
