65
speciation25.ct
Mg         0.95846       -0.05771        0.07031
H         -1.41224        1.00056        0.07721
C         -1.78368       -0.85664        1.16387
C         -1.08154       -0.05771        0.07031
C         -1.45137       -0.37558        2.58180
H         -2.88243       -0.79462        1.00182
H         -1.47927       -1.92119        1.07075
H         -1.99947       -1.02619        3.29759
H         -0.36490       -0.48632        2.77408
C         -1.86536        1.07364        2.83966
H         -1.36093       -0.48193       -0.91710
H         -1.28495        1.77188        2.20226
H         -2.95026        1.20756        2.64236
H         -1.65976        1.33284        3.89901
C          5.23026       -1.37176       -3.00475
C          5.43326       -0.23189       -3.76232
C          4.73482        0.78509       -3.14221
C          4.14791        0.21709       -2.03332
N          4.44288       -1.08135       -1.95191
C          3.29232        0.89222       -1.01741
N          2.94846       -0.05771        0.07031
C          3.45357        0.32945        1.41264
H          6.02611       -0.15166       -4.66363
H          5.64037       -2.35108       -3.21193
H          4.67416        1.81852       -3.45626
H          2.36229        1.23968       -1.51090
H          3.83312        1.78852       -0.66262
C          2.83340        1.66993        1.88040
C          3.03798       -0.76715        2.39974
C          4.99938        0.42986        1.42657
H          1.72551        1.61232        1.86695
H          3.16208        1.90987        2.91648
H          3.13902        2.52799        1.24697
H          3.47705       -1.74077        2.10720
H          3.37763       -0.52251        3.42752
H          1.93076       -0.87319        2.41151
H          5.45390       -0.51619        1.06448
H          5.37412        1.25780        0.79005
H          5.36540        0.63002        2.45595
Mg         3.63674       -1.88322       -0.41487
C          1.27940       -7.30346        1.93839
C          1.71392       -6.51062        2.97842
C          2.00659       -5.26412        2.45577
C          1.77602       -5.30303        1.14426
N          1.28973       -6.56649        0.74363
C          2.05419       -4.17414        0.19706
N          3.45182       -3.72334        0.31024
C          4.54288       -4.61375       -0.17065
H          1.82460       -6.82290        4.00819
H          0.98947       -8.34168        2.01602
H          2.40080       -4.41686        3.00228
H          1.40027       -3.32497        0.48899
H          1.79489       -4.44199       -0.84778
C          4.35210       -5.01092       -1.65068
C          5.84897       -3.82213       -0.01888
C          4.68732       -5.89760        0.67796
H          4.22797       -4.11646       -2.29182
H          5.23144       -5.58957       -2.01197
H          3.46270       -5.66502       -1.77763
H          5.99849       -3.53942        1.04625
H          6.72223       -4.42475       -0.34879
H          5.81946       -2.89299       -0.61874
H          4.78202       -5.64643        1.75581
H          3.84191       -6.59383        0.53422
H          5.58919       -6.46914        0.37198
