65
speciation18.ct
Mg         1.15926        1.65650        0.20949
H          0.63937        4.20275        0.60310
C          1.54264        4.17680       -1.37795
C          1.46386        3.69114        0.06358
C          0.23954        3.91892       -2.13791
H          1.75147        5.26875       -1.36589
H          2.38231        3.65531       -1.88756
H          0.03608        2.82674       -2.17746
H         -0.60558        4.42221       -1.61869
C          0.33346        4.46923       -3.55983
H          2.41592        3.94742        0.56859
H          0.50400        5.56774       -3.53471
H          1.17006        3.98569       -4.10798
H         -0.61329        4.27232       -4.10473
C         -1.74072        0.73428        0.54936
C         -2.29784       -0.52835        0.44933
C         -1.26418       -1.39811        0.15608
C         -0.12359       -0.62688        0.10487
N         -0.41803        0.65874        0.32416
C          1.28114       -1.09027       -0.15152
N          2.24500        0.03300       -0.00400
C          3.12330       -0.03771        1.19249
H         -3.34060       -0.78668        0.57842
H         -2.27091        1.64960        0.77333
H         -1.33392       -2.46845        0.01338
H          1.33534       -1.49306       -1.18295
H          1.48781       -1.92794        0.53874
C          4.01022       -1.30888        1.18105
C          4.04921        1.18666        1.17134
C          2.29621        0.01624        2.49307
H          4.57462       -1.38614        0.23469
H          4.73616       -1.28170        2.02226
H          3.43279       -2.24524        1.30060
H          3.46146        2.11768        1.23437
H          4.75474        1.17232        2.03044
H          4.63776        1.21561        0.23965
H          1.67580        0.93809        2.51738
H          1.62188       -0.85920        2.58602
H          2.96619        0.02231        3.37986
Mg         3.38218        0.08335       -1.63630
C          0.74172       -0.94780       -5.32689
C          0.40630       -0.55665       -4.04918
C          1.47608        0.15756       -3.54219
C          2.43097        0.19277       -4.47175
N          2.02757       -0.48119       -5.64385
C          3.76955        0.84593       -4.31179
N          4.51935        0.13370       -3.26860
C          5.90053        0.61649       -3.01215
H         -0.52305       -0.77933       -3.54208
H          0.11827       -1.52920       -5.99220
H          1.53189        0.60667       -2.56154
H          3.61068        1.91154       -4.04534
H          4.29899        0.77519       -5.28198
C          5.91519        2.09203       -2.55595
C          6.50218       -0.25188       -1.89599
C          6.79853        0.45834       -4.25892
H          5.25735        2.24066       -1.67672
H          6.94589        2.40299       -2.27778
H          5.57503        2.77210       -3.36281
H          6.49786       -1.32395       -2.18561
H          7.54892        0.05020       -1.67330
H          5.92216       -0.14128       -0.96776
H          6.80527       -0.59797       -4.60185
H          6.46349        1.10634       -5.09343
H          7.84327        0.75626       -4.02202
