80
speciation49.ct
Mg         1.08609        1.60926        0.26435
C          1.35111        2.36947        3.37845
C          0.23319        3.79555        1.97020
O          1.19573        2.75033        2.00201
C          0.16741        1.56441        3.97289
C          0.02071        4.26448        0.56694
H          2.30889        1.83657        3.50599
H          1.54059        3.24615        4.03596
H         -0.75480        3.45246        2.33981
H          0.59921        4.66948        2.55420
H         -0.42180        3.42703       -0.00559
H         -0.69898        5.10645        0.55975
H          0.99093        4.60157        0.14503
H         -0.12494        0.70549        3.33710
H          0.44397        1.18179        4.97944
H         -0.72601        2.20474        4.11653
H          0.73946        3.45306       -1.84654
C          1.32438        1.75086       -2.98491
C          1.38093        2.56969       -1.68228
C         -0.04097        1.15110       -3.34497
H          1.63779        2.41513       -3.82103
H          2.04162        0.91459       -2.92354
H          0.07367        0.61437       -4.31468
H         -0.35096        0.41130       -2.58066
C         -1.13220        2.20405       -3.51653
H          2.42281        2.93631       -1.56531
H         -1.33218        2.71536       -2.55342
H         -0.83263        2.95252       -4.28144
H         -2.07016        1.71226       -3.84956
C         -1.82065        0.71538        0.40201
C         -2.35177       -0.55506        0.27813
C         -1.28811       -1.41421        0.06445
C         -0.15352       -0.62900        0.07014
N         -0.48379        0.65248        0.28735
C          1.27744       -1.09493       -0.13236
N          2.24500        0.03300       -0.00400
C          3.30271       -0.15687        1.01610
H         -3.39819       -0.82426        0.33319
H         -2.37688        1.62852        0.56616
H         -1.33876       -2.48590       -0.07602
H          1.37187       -1.53966       -1.14316
H          1.46619       -1.90625        0.59546
C          4.23836       -1.33668        0.68429
C          4.14099        1.13389        1.00765
C          2.69857       -0.43911        2.39681
H          4.69507       -1.20547       -0.30981
H          5.04863       -1.40694        1.44454
H          3.69649       -2.30607        0.69563
H          3.51536        2.02606        1.20389
H          4.95616        1.09210        1.76089
H          4.61002        1.26837        0.00591
H          1.77666        0.12532        2.47322
H          2.36560       -1.48729        2.52254
H          3.42222       -0.22712        3.21388
Mg         3.38218        0.08335       -1.63630
C          4.54203        1.09621       -4.21536
C          5.45721        0.77883       -5.20301
C          6.02237       -0.42039       -4.84434
C          5.42368       -0.78821       -3.65401
N          4.51935        0.13370       -3.26860
C          5.69890       -2.05150       -2.91053
N          4.46000       -2.80940       -2.64641
C          3.74794       -3.41749       -3.79780
H          5.67238        1.35945       -6.08740
H          3.92564        1.97893       -4.19680
H          6.77763       -0.97048       -5.39310
H          6.46144       -2.67400       -3.42171
H          6.14291       -1.76973       -1.93538
C          4.66236       -4.36759       -4.59418
C          2.58443       -4.24150       -3.20486
C          3.12546       -2.36976       -4.74035
H          5.09026       -5.15228       -3.93541
H          4.09794       -4.86021       -5.41486
H          5.50090       -3.81366       -5.07284
H          1.91971       -3.57970       -2.60704
H          1.98149       -4.70429       -4.01639
H          2.96766       -5.04067       -2.54170
H          2.51126       -1.63891       -4.15953
H          3.88261       -1.82586       -5.32598
H          2.47268       -2.85025       -5.49511
