95
speciation144.ct
Mg         1.72735       -0.80011        0.76278
C          3.58749        1.55169        1.40306
C          3.43876       -0.27360        2.92281
O          2.84251        0.41197        1.83724
C          5.01218        1.25017        0.95618
C          3.44296        0.56752        4.20121
H          3.07393        2.04254        0.57145
H          3.56859        2.35505        2.16872
H          2.82266       -1.16979        3.12314
H          4.44699       -0.66086        2.67180
H          2.41210        0.90595        4.43238
H          3.82529       -0.03981        5.04483
H          4.10489        1.45285        4.10091
H          5.08217        0.45570        0.21351
H          5.48508        2.18517        0.55109
H          5.65869        0.99545        1.84768
H         -3.65884        0.46834        3.02033
C         -1.88623        1.11393        1.98866
C         -3.07782        0.14523        2.14209
C         -1.13949        1.34193        3.32025
H         -1.17949        0.70729        1.23339
H         -2.26411        2.08904        1.61927
H         -1.84660        1.75596        4.06931
H         -0.73691        0.38277        3.70939
C          0.01982        2.32886        3.16821
H         -2.70398       -0.80173        2.50531
H          0.78517        1.93269        2.47083
H         -0.34772        3.30515        2.78882
H          0.49932        2.49740        4.15736
C         -0.03974       -2.16056        2.79266
C         -1.21180       -2.86797        2.99375
C         -1.84911       -2.91581        1.78384
C         -1.06077       -2.20952        0.89852
N          0.07456       -1.77234        1.50608
C         -1.35204       -2.12349       -0.55709
N         -2.17614       -0.97122       -1.02197
C         -2.35417       -1.09626       -2.51567
H         -1.54577       -3.30696        3.92520
H          0.70086       -1.96435        3.55077
H         -2.79077       -3.41670        1.56832
H         -0.36215       -2.09511       -1.03498
H         -1.81393       -3.09530       -0.82301
C         -3.23455       -2.32052       -2.88995
C         -2.99754        0.17907       -2.95250
C         -1.06199       -1.20231       -3.36161
H         -4.13953       -2.37797       -2.28485
H         -3.53480       -2.28747       -3.95810
H         -2.69164       -3.27979       -2.75959
H         -2.34043        1.06110       -2.79401
H         -3.37998        0.14985       -3.99710
H         -3.75920        0.25219       -2.24233
H         -0.44046       -0.30943       -3.23460
H         -0.46901       -2.11582       -3.16434
H         -1.32215       -1.23122       -4.44319
Mg        -4.01671       -0.16163        0.11199
C          2.56333       -2.91231       -1.00600
C          2.70566       -0.75617       -1.94207
O          2.12838       -1.56520       -0.93843
C          4.03294       -3.11017       -0.62545
C          2.04728        0.60683       -1.91702
H          1.93578       -3.50347       -0.30709
H          2.36023       -3.33873       -2.01488
H          3.79436       -0.61458       -1.77498
H          2.51355       -1.18904       -2.95014
H          2.20196        1.05966       -0.94561
H          2.46510        1.26136       -2.70943
H          0.96005        0.53735       -2.01523
H          4.22090       -2.72119        0.39581
H          4.27287       -4.19522       -0.65010
H          4.70923       -2.60788       -1.34685
C         -6.11926       -2.39901       -0.72202
C         -6.92705       -2.41747       -1.85658
C         -6.85144       -1.16348       -2.43226
C         -6.05059       -0.42318       -1.60741
N         -5.50516       -1.20038       -0.63178
C         -5.82004        1.08349       -1.68661
N         -5.13737        1.55788       -0.44145
C         -6.16512        2.07857        0.54523
H         -7.48712       -3.25603       -2.24612
H         -5.92800       -3.24397       -0.08014
H         -7.33738       -0.82599       -3.34097
H         -6.81104        1.53972       -1.82507
H         -5.31368        1.44892       -2.60712
C         -7.27931        1.04309        0.88112
C         -5.48385        2.43699        1.86223
C         -6.82752        3.39085        0.04750
H         -6.84191        0.11187        1.29948
H         -7.97731        1.45508        1.64386
H         -7.89977        0.77919        0.00179
H         -4.62100        3.11773        1.70812
H         -6.19353        2.90455        2.57939
H         -5.19156        1.51580        2.34166
H         -6.05754        4.15931       -0.16857
H         -7.46184        3.26215       -0.84895
H         -7.50954        3.79578        0.82996
