95
speciation107.ct
Mg         0.77978        0.02479       -0.03932
C         -0.77597       -2.52363        0.04862
C         -2.08045       -0.64127       -0.52839
O         -0.88125       -1.09479        0.07795
C         -0.95385       -3.22611       -1.31156
C         -3.32198       -1.03397        0.26792
H          0.20795       -2.78686        0.42617
H         -1.45972       -2.97314        0.79719
H         -2.08395        0.44742       -0.51824
H         -2.15888       -0.93605       -1.59553
H         -3.21214       -0.69006        1.31702
H         -4.21265       -0.55223       -0.18467
H         -3.48251       -2.13132        0.25194
H         -0.22444       -2.84811       -2.05084
H         -0.78357       -4.31826       -1.18673
H         -1.98841       -3.11963       -1.70052
H          3.34728       -1.03122        1.06463
C          2.89378       -2.87382        0.41284
C          2.38092       -1.49296        0.92647
C          3.59072       -2.75408       -0.94844
H          3.63880       -3.26768        1.14623
H          2.09795       -3.63171        0.34068
H          2.83715       -2.42914       -1.68393
H          4.42508       -2.01786       -0.88588
C          4.16760       -4.07387       -1.45077
H          1.97267       -1.63935        1.94753
H          4.94494       -4.45536       -0.75622
H          3.36086       -4.82750       -1.56143
H          4.63585       -3.91090       -2.44730
C          0.52124        5.70526       -1.63441
C         -0.64785        5.53755       -2.37447
C         -1.20935        4.35287       -1.94093
C         -0.38168        3.86127       -0.95477
N          0.68536        4.67572       -0.78177
C         -0.61585        2.56631       -0.21537
N          0.38400        2.19664        0.82549
C         -0.17312        2.48461        2.20318
H         -1.05336        6.19887       -3.12044
H          1.19702        6.53960       -1.72134
H         -2.13684        3.91307       -2.28411
H         -0.54702        1.81165       -0.98048
H         -1.65826        2.54864        0.15941
C         -1.27320        1.50735        2.64806
C          0.97356        2.40684        3.19898
C         -0.77221        3.92986        2.33455
H         -0.93533        0.46490        2.55741
H         -1.54335        1.70577        3.71628
H         -2.20939        1.65226        2.07189
H          1.69888        3.13776        2.84164
H          0.67751        2.70068        4.22852
H          1.42003        1.39780        3.23624
H         -0.07036        4.70817        2.00841
H         -1.68796        4.08763        1.73601
H         -1.04967        4.15914        3.39184
Mg         1.68819        3.85446        0.60779
C          2.64907        0.07651       -2.43759
C          0.36963        0.50223       -2.99731
O          1.29142        0.08768       -1.99243
C          3.18124        1.34709       -3.10507
C          0.26652       -0.46481       -4.18070
H          3.28815       -0.10212       -1.55557
H          2.81309       -0.78243       -3.12625
H         -0.64325        0.49884       -2.57329
H          0.56665        1.54409       -3.32689
H         -0.03327       -1.47134       -3.83063
H         -0.51523       -0.09653       -4.87942
H          1.21721       -0.53890       -4.74385
H          3.08359        2.21384       -2.42382
H          4.25649        1.19435       -3.34608
H          2.66852        1.54500       -4.06799
C          1.93236        6.24077        2.83557
C          3.09464        6.92485        3.16850
C          4.08040        6.46695        2.32800
C          3.46307        5.55735        1.50597
N          2.18855        5.33376        1.85906
C          4.06702        4.83189        0.34141
N          3.66249        3.43045        0.36350
C          4.43155        2.62396        1.34785
H          3.21980        7.67323        3.94108
H          0.97429        6.39195        3.30850
H          5.12034        6.77040        2.29771
H          5.15694        4.98289        0.24212
H          3.59598        5.26230       -0.56577
C          4.53854        3.16400        2.80805
C          3.76253        1.27969        1.36784
C          5.87883        2.40272        0.85919
H          3.60547        3.42026        3.31249
H          5.02383        2.40734        3.46634
H          5.18431        4.05758        2.85326
H          3.95732        0.80909        0.38568
H          4.15028        0.63967        2.19820
H          2.67084        1.36064        1.46299
H          5.88446        2.01950       -0.18217
H          6.45788        3.34620        0.88774
H          6.40941        1.67304        1.51247
