80
speciation80.ct
Mg         2.54222        1.61812       -1.53092
C          0.55609       -1.12498       -1.14061
C          0.38604       -0.05523        0.87229
O          0.80362        0.18820       -0.53267
C         -0.92962       -1.67003       -1.08702
C          0.52142        0.97161        1.99375
H          0.87232       -1.11802       -2.19324
H          1.14901       -1.93187       -0.64374
H         -0.71600       -0.16989        0.90685
H          0.85770       -0.97629        1.30319
H         -0.02300        1.89403        1.76868
H          0.03946        0.54029        2.90615
H          1.54064        1.13384        2.33127
H         -1.63641       -0.96115       -1.55770
H         -1.01073       -2.65302       -1.58940
H         -1.30191       -1.90163       -0.06164
H          1.89306        2.11125       -4.20447
C          3.54509        1.59740       -5.51216
C          2.98672        2.29661       -4.26273
C          3.43120        0.08170       -5.40976
H          2.99449        1.94729       -6.41951
H          4.60775        1.88246       -5.64758
H          3.96290       -0.25470       -4.49579
H          2.35944       -0.20540       -5.33941
C          4.05595       -0.60458       -6.62513
H          3.10497        3.38344       -4.47690
H          3.53106       -0.31207       -7.56045
H          5.12978       -0.33127       -6.71446
H          3.98230       -1.70572       -6.50642
C          4.19474        5.15632       -2.20866
C          5.37690        5.84731       -2.27014
C          6.33382        4.95055       -2.54995
C          5.66866        3.74473       -2.65748
N          4.34609        3.79044       -2.30466
C          6.44174        2.60584       -3.18522
N          5.92492        1.40959       -2.61816
C          6.61159        0.98267       -1.39192
H          5.52089        6.90844       -2.14096
H          3.32302        5.69007       -2.06806
H          7.39005        5.15621       -2.69377
H          7.54295        2.72754       -3.14672
H          6.20466        2.59434       -4.26330
C          6.41261        2.03249       -0.28033
C          5.95666       -0.34209       -1.12086
C          8.12531        0.71328       -1.51565
H          5.39130        2.39267       -0.32633
H          6.64592        1.64041        0.72917
H          7.05092        2.93100       -0.44624
H          6.26680       -1.09236       -1.87394
H          6.15646       -0.70291       -0.09595
H          4.90690       -0.22264       -1.38225
H          8.33632       -0.03691       -2.30092
H          8.71034        1.62944       -1.72974
H          8.49166        0.32595       -0.53619
Mg         3.91673        1.97280       -2.16348
C          3.41674       -0.80186        0.30155
C          3.98283       -0.79628        1.55193
C          4.03208        0.52808        1.94989
C          3.49761        1.26754        0.91813
N          3.16044        0.46790       -0.09526
C          3.24142        2.75731        0.87338
N          2.71904        3.15905       -0.45463
C          1.76944        4.34377       -0.47223
H          4.33635       -1.66499        2.08778
H          3.27153       -1.67595       -0.31590
H          4.41342        0.89341        2.88939
H          2.52885        2.98598        1.68174
H          4.15898        3.32125        1.10068
C          2.39838        5.62730        0.21997
C          1.18131        4.55428       -1.92082
C          0.49519        4.07919        0.35285
H          3.15904        6.27177       -0.23733
H          1.61090        6.36756        0.46426
H          2.89957        5.34220        1.16279
H          0.49025        3.73280       -2.20181
H          0.62925        5.51762       -1.98763
H          1.86930        4.52005       -2.77847
H         -0.04244        3.18739       -0.02827
H          0.69178        3.99444        1.43424
H         -0.19842        4.94630        0.24501
