95
speciation151.ct
Mg         0.98151        1.74711        0.60921
C         -0.16861        2.80431        3.11502
C          2.09943        3.32458        2.57457
O          1.00002        2.45867        2.37091
C         -0.64119        4.26151        3.00426
C          2.68939        3.19437        3.98556
H         -0.99634        2.14905        2.77552
H         -0.01557        2.53950        4.18386
H          2.87273        3.05313        1.83427
H          1.86833        4.37677        2.31697
H          2.94234        2.13936        4.22151
H          3.61136        3.80453        4.06243
H          1.97141        3.55668        4.74928
H         -0.87054        4.51460        1.95000
H         -1.55961        4.39094        3.61583
H          0.10450        4.97188        3.41401
H          3.24370       -2.42634       -2.84396
C          3.86506       -1.01153       -4.40880
C          3.09580       -1.36043       -3.09633
C          3.47640       -1.88715       -5.61177
H          3.69413        0.03376       -4.71915
H          4.95067       -1.12877       -4.21403
H          3.72842       -2.93562       -5.35884
H          2.38662       -1.81820       -5.83148
C          4.24156       -1.48317       -6.88328
H          2.01043       -1.18723       -3.28487
H          3.83759       -0.53809       -7.31196
H          5.32361       -1.34198       -6.67522
H          4.13841       -2.27820       -7.65313
C         -1.92192        0.85438        0.16376
C         -2.49541       -0.39697       -0.00778
C         -1.44634       -1.28993        0.02143
C         -0.29320       -0.55247        0.17460
N         -0.58753        0.77099        0.28775
C          1.06788       -1.11399        0.26321
N          2.17197       -0.12408        0.52480
C          2.87124       -0.66515        1.79051
H         -3.54331       -0.63540       -0.11522
H         -2.48752        1.77887        0.18563
H         -1.51498       -2.37487       -0.05604
H          1.32503       -1.73834       -0.61076
H          0.91423       -1.83192        1.09829
C          3.40443       -2.13649        1.62720
C          4.03593        0.19935        2.05904
C          2.06685       -0.62699        3.12752
H          3.79860       -2.33440        0.61271
H          4.17792       -2.39188        2.38867
H          2.61177       -2.90288        1.77704
H          3.75749        1.21662        2.34020
H          4.75713       -0.19465        2.81393
H          4.42324        0.20631        1.08258
H          1.62035        0.36222        3.31191
H          1.27421       -1.39339        3.19586
H          2.74753       -0.83296        3.99242
Mg         3.57539       -0.00937       -1.38506
C          1.97401        3.91526       -1.39320
C         -0.36479        4.04533       -0.99873
O          0.85738        3.30390       -0.76892
C          2.30921        5.39280       -1.17390
C         -0.75285        4.18948       -2.48974
H          2.86531        3.32394       -1.10735
H          1.80144        3.88086       -2.46015
H         -1.17345        3.46268       -0.52985
H         -0.36705        5.04107       -0.49959
H         -1.82141        4.48462       -2.58693
H         -0.15959        4.98414       -2.99478
H         -0.60773        3.23492       -3.03810
H          2.51937        5.62836       -0.12257
H          3.23098        5.59665       -1.77771
H          1.52491        6.05634       -1.59748
C          2.33179        1.81482       -3.51386
C          2.87525        2.82957       -4.28790
C          4.19390        2.98433       -3.89500
C          4.40258        2.03152       -2.92597
N          3.27217        1.34169       -2.67311
C          5.72717        1.76200       -2.25766
N          5.62735        0.60210       -1.34950
C          6.50550        0.66036       -0.15537
H          2.36765        3.40897       -5.04400
H          1.32917        1.42181       -3.58769
H          4.90397        3.69465       -4.27431
H          6.02277        2.68912       -1.74733
H          6.49117        1.53665       -3.03417
C          6.02953        1.87494        0.72624
C          6.49134       -0.78570        0.41984
C          8.00659        0.93387       -0.39854
H          4.94033        2.09251        0.61601
H          6.32707        1.76195        1.78864
H          6.43946        2.83579        0.37609
H          7.10632       -1.46524       -0.21065
H          6.85096       -0.84536        1.46651
H          5.52738       -1.27634        0.30101
H          8.47631        0.15743       -1.03217
H          8.18678        1.92936       -0.84128
H          8.51133        0.91220        0.59879
