95
speciation103.ct
Mg         0.84941       -0.06168        0.14556
C          2.25130        1.50178       -1.98642
C          3.59960        0.25995       -0.50918
O          2.36235        0.94073       -0.68043
C          2.39783        0.53319       -3.16741
C          4.81618        1.19867       -0.55877
H          1.28129        1.95570       -2.05583
H          2.92609        2.37487       -2.10657
H          3.60621       -0.18991        0.49683
H          3.71063       -0.58779       -1.21572
H          4.72106        1.99213        0.21245
H          5.74153        0.61745       -0.36565
H          4.93626        1.67299       -1.55472
H          1.70664       -0.32081       -3.06246
H          2.15699        1.06842       -4.11097
H          3.43831        0.16309       -3.26305
H          0.74052       -0.96409        2.73554
C          1.53599        1.04290        2.95161
C          1.47655       -0.31559        2.22313
C          1.79038        0.86713        4.46168
H          2.33259        1.67095        2.49662
H          0.56283        1.56439        2.82049
H          0.95246        0.28388        4.90293
H          2.73741        0.31077        4.62602
C          1.88364        2.20512        5.20154
H          2.45969       -0.82356        2.30697
H          2.74960        2.79540        4.83389
H          0.95416        2.79956        5.07146
H          2.02692        2.01880        6.28885
C         -0.23085       -1.70301       -1.94424
C         -0.40187       -2.90231       -2.60526
C          0.29411       -3.83298       -1.88555
C          0.85107       -3.17200       -0.79990
N          0.51991       -1.84592       -0.83088
C          1.70044       -3.89422        0.22615
N          1.15842       -3.87868        1.60427
C         -0.12430       -4.58799        1.87325
H         -0.96431       -3.07600       -3.51604
H         -0.65678       -0.76140       -2.27095
H          0.37742       -4.89230       -2.12465
H          1.85396       -4.94937       -0.09028
H          2.70246       -3.42886        0.23329
C         -0.10572       -6.06350        1.40887
C         -0.35192       -4.52979        3.38588
C         -1.34012       -3.88446        1.24551
H          0.75339       -6.60361        1.85313
H         -1.04018       -6.58149        1.71971
H         -0.04533       -6.14296        0.30300
H         -0.36890       -3.47187        3.72866
H         -1.30569       -5.01626        3.68049
H          0.45982       -5.03600        3.91618
H         -1.34046       -2.84162        1.60813
H         -1.35020       -3.92738        0.14441
H         -2.28835       -4.36622        1.56897
Mg         2.38590       -4.99526        2.74529
C         -1.76185        0.19180        1.17066
C         -1.74451        1.83195       -0.42894
O         -0.89806        0.93603        0.31272
C         -2.69344       -0.78990        0.42321
C         -1.03801        2.78770       -1.33751
H         -1.17723       -0.37945        1.91112
H         -2.34657        0.88653        1.81656
H         -2.44221        1.32242       -1.11139
H         -2.31655        2.47405        0.28366
H         -0.68898        2.21665       -2.21223
H         -1.79015        3.49944       -1.74116
H         -0.25330        3.34758       -0.79002
H         -2.12337       -1.64498        0.03856
H         -3.51230       -1.10205        1.10031
H         -3.21083       -0.40257       -0.46364
C          4.36151       -7.12022        1.54757
C          4.76372       -8.33960        2.06275
C          4.09691       -8.50001        3.26356
C          3.31196       -7.39452        3.40171
N          3.47655       -6.55202        2.38429
C          2.45299       -6.98237        4.53325
N          2.67647       -5.53613        4.71002
C          3.88044       -5.13496        5.50489
H          5.48451       -9.01580        1.62885
H          4.71706       -6.65793        0.63891
H          4.17751       -9.34440        3.94529
H          2.57679       -7.60661        5.44201
H          1.40028       -7.10988        4.20642
C          5.20440       -5.57334        4.85452
C          3.88074       -3.60162        5.60675
C          3.81273       -5.69902        6.94741
H          5.27819       -5.18258        3.81689
H          6.07341       -5.19313        5.42910
H          5.30937       -6.67824        4.84080
H          2.96521       -3.24335        6.11940
H          4.76231       -3.25404        6.19437
H          3.92933       -3.15048        4.59752
H          2.87516       -5.39162        7.45616
H          3.88006       -6.81179        6.96375
H          4.68636       -5.35118        7.54797
