95
speciation137.ct
Mg        -0.61859       -2.81654       -1.98452
C         -2.34504       -4.97915       -2.82097
C         -2.88423       -4.10661       -0.66654
O         -1.87331       -4.30772       -1.65989
C         -3.35501       -4.21796       -3.71259
C         -3.41743       -5.40459       -0.02030
H         -1.47539       -5.36023       -3.37846
H         -2.84395       -5.93838       -2.54956
H         -2.44081       -3.53613        0.16281
H         -3.70611       -3.47820       -1.05129
H         -2.59429       -6.00432        0.41881
H         -4.12625       -5.13834        0.79180
H         -3.98904       -6.03278       -0.73276
H         -3.67043       -3.18280       -3.99772
H         -3.48781       -4.85641       -4.61634
H         -4.19951       -4.24895       -3.06435
H         -4.93801       -3.26958        4.55076
C         -4.24086       -5.17669        5.17087
C         -4.52714       -4.14557        4.01258
C         -3.94437       -6.63188        4.75004
H         -3.45833       -4.80620        5.86758
H         -5.18042       -5.25722        5.78006
H         -3.95490       -7.30420        5.66983
H         -4.75662       -7.00008        4.10598
C         -2.58935       -6.81639        4.10067
H         -5.37630       -4.59188        3.44598
H         -2.54241       -7.82901        3.63915
H         -2.44469       -6.04929        3.32621
H         -1.77902       -6.75109        4.86381
C         -1.15797       -2.79997        4.05060
C          0.18484       -2.86231        4.28315
C          0.78745       -2.97009        3.06845
C         -0.22457       -2.95226        2.12149
N         -1.45898       -2.86279        2.72063
C          0.13663       -3.02018        0.65861
N         -0.38642       -1.88266       -0.11367
C          0.21464       -0.52787        0.17444
H          0.68644       -2.82369        5.23987
H         -1.92353       -2.70946        4.81252
H          1.85406       -3.01781        2.86701
H         -0.27124       -3.95585        0.24699
H          1.22875       -3.09874        0.50414
C          1.75347       -0.48439       -0.04384
C         -0.49979        0.50321       -0.72142
C         -0.02580       -0.02656        1.62709
H          2.09248       -0.90105       -0.99883
H          2.12843        0.55954        0.03406
H          2.27948       -1.07490        0.73527
H         -1.58325        0.52703       -0.47598
H         -0.08994        1.52311       -0.54845
H         -0.40829        0.27730       -1.79201
H         -1.10053       -0.07987        1.90646
H          0.57336       -0.57116        2.37298
H          0.31179        1.02520        1.74203
Mg        -3.56719       -2.73688        2.26992
C          1.05311       -1.38821       -3.71304
C          0.31182       -3.31945       -4.84878
O          0.59596       -2.72256       -3.58216
C          0.16716       -0.44468       -4.54329
C          1.57505       -3.54340       -5.70845
H          1.03644       -0.97156       -2.71655
H          2.11456       -1.34492       -4.03003
H         -0.12056       -4.31956       -4.69307
H         -0.45247       -2.75023       -5.41052
H          2.25510       -4.27052       -5.22640
H          1.28289       -3.93017       -6.70759
H          2.13272       -2.59449       -5.88769
H         -0.88308       -0.50108       -4.18764
H          0.53153        0.59786       -4.42476
H          0.21784       -0.68287       -5.62580
C         -5.91901       -2.34490        0.35150
C         -6.75356       -1.63611       -0.48213
C         -6.29025       -0.34468       -0.44711
C         -5.22085       -0.33057        0.38068
N         -5.01335       -1.54859        0.94359
C         -4.46179        0.98686        0.60072
N         -5.35777        2.11015        0.96902
C         -5.82424        2.24387        2.36268
H         -7.59524       -1.98224       -1.06224
H         -6.00958       -3.42032        0.53811
H         -6.70652        0.49130       -0.99903
H         -3.59130        0.86776        1.28373
H         -4.04794        1.22772       -0.37780
C         -4.67497        2.03755        3.36796
C         -6.36960        3.68326        2.55616
C         -6.98293        1.26960        2.64365
H         -3.85235        2.75579        3.14799
H         -5.02810        2.20609        4.40282
H         -4.28514        1.00497        3.32214
H         -7.23595        3.88074        1.88536
H         -6.71363        3.83682        3.60083
H         -5.58604        4.44130        2.33400
H         -7.82793        1.46599        1.95264
H         -6.66116        0.21567        2.52318
H         -7.34853        1.39487        3.68492
