39
speciation0.ct
Mg         1.03827       -0.07869       -0.04841
H         -1.36454       -1.11152       -0.23633
C         -1.52517        0.87183       -1.11848
C         -1.00173       -0.07869       -0.04841
C         -1.07953        0.47243       -2.53206
H         -2.63642        0.87017       -1.08172
H         -1.16866        1.89995       -0.89394
H         -1.46837       -0.53831       -2.78350
H         -1.51610        1.20109       -3.24845
C          0.44015        0.48371       -2.69989
H         -1.35270        0.25111        0.95201
H          0.85227        1.47968       -2.43292
H          0.90953       -0.29462       -2.06666
H          0.69972        0.25903       -3.75507
C          3.82584       -1.16204        0.02331
C          5.14873       -0.77286        0.06811
C          5.16043        0.60376        0.02172
C          3.83904        0.99719       -0.05124
N          3.02827       -0.07869       -0.04841
C          3.35093        2.41012       -0.09969
N          3.91622        3.07809       -1.28087
C          3.49230        4.47904       -1.50486
H          6.01100       -1.42447        0.14119
H          3.46173       -2.17987        0.05882
H          6.03099        1.24617        0.05010
H          2.24413        2.38434       -0.14898
H          3.67611        2.91564        0.83211
C          3.93009        5.39838       -0.34309
C          4.18766        4.96208       -2.78937
C          1.96727        4.57696       -1.71382
H          5.03034        5.34262       -0.19583
H          3.66195        6.45482       -0.56422
H          3.42927        5.12628        0.60724
H          3.91291        4.31253       -3.64828
H          3.89209        6.00635       -3.03221
H          5.29291        4.93218       -2.67208
H          1.64951        3.91191       -2.54501
H          1.40735        4.29984       -0.79802
H          1.67624        5.61919       -1.96571
