80
speciation66.ct
Mg         2.73688        0.46356        2.84036
C          1.81035        2.15012        4.83782
C          2.60272        0.08318        5.64831
O          1.95478        0.76205        4.59045
C          3.13072        2.91982        4.95600
C          2.76159       -1.38763        5.29197
H          1.25814        2.57010        3.97029
H          1.16404        2.32694        5.72560
H          3.62190        0.47714        5.84239
H          1.98132        0.14333        6.56904
H          3.41891       -1.49315        4.40274
H          3.22669       -1.92739        6.14452
H          1.77267       -1.84215        5.07437
H          3.77134        2.72627        4.07066
H          2.91419        4.00743        5.01406
H          3.67712        2.65080        5.88272
H          3.17478        0.10296       -4.07978
C          1.06569        0.51802       -3.81372
C          2.51429        0.63135       -3.35824
C          0.87469        1.22595       -5.14768
H          0.77343       -0.55700       -3.90631
H          0.42283        0.98618       -3.03828
H          1.21887        2.27571       -5.03814
H          1.48052        0.72544       -5.93590
C         -0.59283        1.23530       -5.56272
H          2.56007        0.06876       -2.40594
H         -0.95503        0.20290       -5.75626
H         -1.21175        1.69486       -4.76204
H         -0.70634        1.83798       -6.48678
C          4.16349       -0.98131        0.68684
C          4.78671       -0.82515       -0.53547
C          4.54783        0.46884       -0.93765
C          3.77011        1.04419        0.04394
N          3.53915        0.15738        1.04517
C          3.32552        2.47656        0.04846
N          2.50025        2.82463       -1.13763
C          1.94501        4.19728       -1.11389
H          5.38157       -1.55993       -1.06041
H          4.20276       -1.86987        1.30193
H          4.91437        0.94720       -1.83706
H          2.74823        2.62616        0.98209
H          4.24157        3.09801        0.07861
C          3.07512        5.24949       -1.00322
C          1.17963        4.38874       -2.43593
C          0.93615        4.40463        0.03435
H          3.84401        5.08502       -1.78683
H          2.66932        6.27939       -1.09732
H          3.57955        5.20174       -0.01617
H          0.34816        3.65925       -2.51461
H          0.75774        5.41350       -2.50578
H          1.83543        4.21775       -3.30838
H          0.11596        3.65848       -0.03218
H          1.41045        4.32998        1.03248
H          0.49028        5.42155       -0.03084
Mg         3.21020        2.71865       -3.05257
C          4.97307        3.30365       -5.33757
C          5.54736        4.16298       -6.24898
C          5.04881        5.41125       -5.98983
C          4.17352        5.26557       -4.92774
N          4.12416        3.95885       -4.51226
C          3.44256        6.46390       -4.35928
N          2.62657        7.12589       -5.40048
C          1.95582        8.39280       -5.00851
H          6.27369        3.91617       -7.02087
H          5.17509        2.24191       -5.28198
H          5.28816        6.32449       -6.51674
H          2.80926        6.16246       -3.52580
H          4.21931        7.15679       -3.98867
C          2.97497        9.50102       -4.65126
C          1.12836        8.88996       -6.21093
C          0.98587        8.17882       -3.82777
H          3.66385        9.68366       -5.50262
H          2.44515       10.45353       -4.42606
H          3.56812        9.24362       -3.75253
H          0.36891        8.13376       -6.50832
H          0.59194        9.83359       -5.96218
H          1.78289        9.08868       -7.08652
H          0.22797        7.40599       -4.08778
H          1.51964        7.86788       -2.90915
H          0.44702        9.12195       -3.58774
