80
speciation85.ct
Mg         0.95240        0.07633        0.04368
C         -1.42514        1.05698       -0.88769
C         -1.50082        0.23976        1.35627
O         -0.98760        0.07633        0.04368
C         -1.21956        2.51581       -0.45833
C         -2.99819       -0.07343        1.43754
H         -0.82836        0.90198       -1.81124
H         -2.47996        0.87382       -1.18259
H         -0.98335       -0.49182        2.01185
H         -1.27090        1.23659        1.78170
H         -3.18988       -1.11814        1.11267
H         -3.34560        0.04393        2.48567
H         -3.59140        0.61890        0.80571
H         -0.16030        2.68772       -0.17443
H         -1.48081        3.18631       -1.30364
H         -1.88795        2.78894        0.38435
H          5.44940       -2.31593        1.10997
C          5.48809       -4.20172        0.20641
C          4.70469       -2.95801        0.62087
C          6.58440       -3.96367       -0.84153
H          5.96794       -4.61606        1.12285
H          4.78742       -4.96239       -0.18667
H          7.08994       -4.93963       -1.00608
H          6.12850       -3.64778       -1.79710
C          7.65175       -2.94600       -0.42697
H          4.00755       -3.28846        1.41417
H          7.22687       -1.92155       -0.37269
H          8.09732       -3.21536        0.55433
H          8.46180       -2.93832       -1.18794
C          5.27524       -1.19481       -3.13686
C          5.56229       -0.00639       -3.78027
C          4.88414        0.98716       -3.09910
C          4.22250        0.35698       -2.06723
N          4.46859       -0.96103       -2.08627
C          3.34106        1.02064       -1.03830
N          2.94240        0.07633        0.04368
C          3.37728        0.50899        1.40780
H          6.18537        0.12275       -4.65300
H          5.62681       -2.17060       -3.43699
H          4.87855        2.04544       -3.32664
H          2.43677        1.43011       -1.53291
H          3.91529        1.88359       -0.65672
C          2.78384        1.88604        1.80631
C          2.82793       -0.50252        2.42671
C          4.92055        0.60496        1.51476
H          1.67544        1.87193        1.75335
H          3.08195        2.14121        2.84803
H          3.15065        2.71607        1.17113
H          3.17200       -1.51918        2.21955
H          3.14477       -0.23975        3.46022
H          1.71658       -0.51221        2.39796
H          5.41737       -0.27814        1.10764
H          5.32869        1.46330        0.94480
H          5.23742        0.74070        2.57105
Mg         3.47006       -1.69443       -0.69360
C          1.19696       -2.06908       -2.62679
C          0.09335       -2.84585       -2.93607
C          0.03778       -3.83778       -1.98929
C          1.11177       -3.62007       -1.14059
N          1.83175       -2.55149       -1.53645
C          1.45019       -4.43425        0.05823
N          0.90658       -5.79596       -0.05327
C          1.25538       -6.70247        1.06454
H         -0.60021       -2.70006       -3.75468
H          1.51356       -1.19652       -3.17925
H         -0.70808       -4.62057       -1.91760
H          2.54642       -4.48259        0.06560
H          1.07844       -3.90399        0.95876
C          0.49380       -6.29615        2.33614
C          0.81994       -8.12216        0.65755
C          2.77657       -6.73525        1.34450
H         -0.60301       -6.29308        2.14421
H          0.70401       -7.00493        3.16543
H          0.78734       -5.28310        2.68348
H          1.34958       -8.43891       -0.26338
H          1.05976       -8.85022        1.46634
H         -0.27146       -8.15745        0.46671
H          3.33539       -7.00990        0.42299
H          3.15232       -5.75984        1.71706
H          3.01557       -7.48702        2.13026
