96
speciation1334.ct
Na         7.28030        1.30143        0.33084
Mg         1.59316        2.28611       -1.69646
C          9.65203        2.09700       -0.90077
C         10.46739        1.68477        1.22196
O          9.30891        2.01220        0.46658
C          9.87546        0.72156       -1.54020
C         10.23067        1.88258        2.70546
H          8.79491        2.58290       -1.37199
H         10.50604        2.78549       -1.09626
H         10.80278        0.64067        1.04521
H         11.29713        2.38820        0.96364
H          9.50583        1.13184        3.07923
H         11.19714        1.75046        3.24023
H          9.85637        2.90850        2.90155
H          9.01505        0.05657       -1.32194
H          9.98653        0.82597       -2.63976
H         10.80239        0.25067       -1.15356
H          0.56475        2.01454       -0.98508
C         -1.10821        3.03971       -0.08963
C          0.23316        2.31961        0.02375
C         -2.01306        2.28998       -1.06620
H         -1.58735        3.09977        0.91661
H         -0.93617        4.07331       -0.45465
H         -1.49902        2.24267       -2.04560
H         -2.18704        1.25291       -0.70545
C         -3.34844        2.99287       -1.26107
H          0.09347        1.38335        0.60699
H         -3.91720        3.01787       -0.30827
H         -3.18715        4.03024       -1.62456
H         -3.93880        2.43868       -2.02079
C          4.95944       -0.86932        0.07701
C          3.60607       -1.12113       -0.04408
C          2.97325        0.09783       -0.04109
C          3.97327        1.04532        0.07950
N          5.18984        0.45861        0.14364
C          3.76304        2.52419        0.22099
N          3.13327        3.28752       -0.88477
C          3.06612        4.78303       -0.50216
H          3.12351       -2.08991       -0.11456
H          5.72984       -1.62716        0.11335
H          1.91375        0.25270       -0.09431
H          3.15652        2.61776        1.15716
H          4.78041        2.90898        0.43646
C          4.48530        5.36664       -0.28515
C          2.41950        5.71161       -1.55551
C          2.22676        5.05145        0.78317
H          5.10721        5.20890       -1.18663
H          4.43262        6.46534       -0.09917
H          4.99852        4.96391        0.60362
H          1.34328        5.49930       -1.67840
H          2.41655        6.76773       -1.21129
H          3.00411        5.76517       -2.49169
H          1.17543        4.72906        0.65304
H          2.64452        4.59533        1.69758
H          2.19297        6.14408        1.00019
Mg         3.55125        2.24390       -2.70328
C          5.56892        0.67262       -4.07053
C          6.45841        2.47388       -2.82349
O          5.32279        1.94582       -3.48184
C          6.02418       -0.44619       -3.12382
C          7.57270        2.84612       -3.82484
H          4.62428        0.36708       -4.50092
H          6.25354        0.74696       -4.93863
H          6.15400        3.40203       -2.30431
H          6.81165        1.79429       -2.02544
H          7.19834        3.60240       -4.54153
H          8.45634        3.28161       -3.32663
H          7.94428        1.96175       -4.38133
H          5.25561       -0.58661       -2.35564
H          6.12418       -1.40284       -3.67893
H          7.01348       -0.25010       -2.66192
C          3.45155       -1.22202       -6.80311
C          2.55001       -0.55681       -7.59721
C          1.64455        0.06935       -6.75039
C          2.00865       -0.16059       -5.47908
N          3.10734       -1.04594       -5.45454
C          1.34642        0.36698       -4.19703
N          1.76995        1.73842       -3.75374
C          1.32401        2.86629       -4.62189
H          2.57456       -0.51563       -8.67853
H          4.30412       -1.78815       -7.15471
H          0.81078        0.66847       -7.09223
H          1.60491       -0.33730       -3.38272
H          0.24406        0.28662       -4.29720
C         -0.17001        2.80414       -5.03316
C          1.48294        4.05732       -3.75972
C          2.23939        3.12057       -5.84974
H         -0.82082        2.73361       -4.13866
H         -0.45748        3.73381       -5.57446
H         -0.40156        1.95609       -5.69955
H          2.55084        4.04173       -3.46856
H          1.23528        5.01207       -4.27284
H          0.82396        3.91097       -2.88057
H          3.29751        3.25965       -5.54274
H          2.22703        2.35540       -6.61960
H          1.90993        4.04499       -6.37568
