68
speciation88.ct
Na         2.26764        0.35038        0.95694
Mg         0.24407        1.50353       -1.14190
C          4.66670        0.11574        3.07368
C          2.61159       -0.58436        4.04261
O          3.25959        0.03216        2.92589
C          5.37545       -1.24149        2.94815
C          2.70813        0.21853        5.35837
H          5.05333        0.72732        2.23750
H          4.95002        0.71308        3.96983
H          1.53320       -0.66597        3.80863
H          2.97723       -1.61671        4.20349
H          2.26506        1.23057        5.25319
H          2.15600       -0.31779        6.16567
H          3.75345        0.31789        5.72468
H          5.18669       -1.58818        1.91919
H          6.46211       -1.08225        3.12211
H          5.06013       -2.07814        3.61305
C         -0.48025        3.37558       -3.56714
C          0.06162        4.62826       -3.79564
C          1.07088        4.80138       -2.86343
C          1.12854        3.61716       -2.15745
N          0.10170        2.84077       -2.48494
C          2.21458        3.11057       -1.20898
N          1.68775        2.34457       -0.03950
C          1.67485        3.18907        1.17051
H         -0.22829        5.33202       -4.56554
H         -1.28831        2.91907       -4.12957
H          1.71921        5.65895       -2.75059
H          2.79808        2.40200       -1.81937
H          2.93514        3.91519       -1.00994
C          0.82819        4.45552        0.98613
C          1.04733        2.42711        2.36783
C          3.15203        3.50958        1.57296
H         -0.20914        4.14436        0.71038
H          0.78971        5.04080        1.91828
H          1.22376        5.10432        0.18364
H          1.60064        1.52676        2.60838
H          1.09104        3.05426        3.27940
H          0.00010        2.13308        2.16241
H          3.73353        2.56112        1.62640
H          3.69490        4.15450        0.85825
H          3.22422        4.02785        2.54565
Na         2.82375       -2.83625        0.81052
C         -2.06784        0.65441        0.00290
C         -2.75464       -0.38710        0.59097
C         -1.92681       -1.48940        0.52136
C         -0.76105       -1.07219       -0.11009
N         -0.85911        0.22362       -0.42049
C          0.40312       -1.97064       -0.46296
N          1.76107       -1.37072       -0.32898
C          2.52105       -1.22610       -1.60199
H         -3.75056       -0.33700        1.00837
H         -2.42416        1.67093       -0.10279
H         -2.15880       -2.48465        0.87415
H          0.34262       -2.87904        0.16994
H          0.20188       -2.33282       -1.48671
C          1.79322       -0.29494       -2.58135
C          3.89503       -0.60458       -1.26237
C          2.77958       -2.57784       -2.30275
H          1.64244        0.66029       -2.09835
H          2.39441       -0.11775       -3.49857
H          0.79994       -0.68000       -2.88269
H          4.47212       -1.27185       -0.58529
H          4.49743       -0.44246       -2.18382
H          3.78253        0.37717       -0.76042
H          3.36055       -3.26011       -1.64923
H          1.84821       -3.09033       -2.60997
H          3.36395       -2.41097       -3.23675
