83
speciation696.ct
Na         1.46802        1.82530        0.04863
Mg         3.30460       -0.22394       -1.80298
C          3.89584       -1.59171       -4.04385
C          4.42621       -2.92529       -2.15785
O          4.32148       -1.60721       -2.68822
C          2.60706       -2.37337       -4.34175
C          5.62094       -3.68435       -2.75142
H          3.69054       -0.54180       -4.28953
H          4.72026       -1.87501       -4.72894
H          4.60563       -2.87795       -1.07564
H          3.48738       -3.50209       -2.25721
H          6.57074       -3.18054       -2.47173
H          5.63743       -4.72333       -2.36146
H          5.56181       -3.74750       -3.85659
H          1.80495       -2.07558       -3.63278
H          2.27664       -2.15742       -5.37813
H          2.77168       -3.46831       -4.28175
C         -1.62437        0.86780        0.07898
C         -2.25113       -0.35753        0.05593
C         -1.25262       -1.30468        0.01912
C         -0.05919       -0.60899        0.02629
N         -0.28413        0.70884        0.05490
C          1.31881       -1.20498        0.01029
N          2.36956       -0.15771       -0.00802
C          3.24634       -0.09004        1.18767
H         -3.32159       -0.52829        0.06504
H         -2.13719        1.80779        0.11159
H         -1.38380       -2.37764       -0.00567
H          1.42766       -1.82510       -0.90278
H          1.38875       -1.87345        0.88846
C          4.02147       -1.39729        1.44171
C          4.28028        1.01121        0.93267
C          2.42514        0.28546        2.44424
H          4.68359       -1.60866        0.58879
H          4.67329       -1.28847        2.33516
H          3.36331       -2.26760        1.62748
H          3.76382        1.96458        0.76038
H          4.96878        1.12983        1.79766
H          4.88103        0.78021        0.02725
H          1.89372        1.24977        2.29691
H          1.67123       -0.48938        2.69134
H          3.09245        0.39839        3.32644
Na        -2.74745        3.53123       -1.21695
C          1.80435        1.80417       -3.12255
C          4.10854        2.03779       -3.55813
O          3.11995        1.46713       -2.71525
C          1.38109        1.22286       -4.47637
C          5.49700        1.70991       -3.03675
H          1.11251        1.40680       -2.35298
H          1.67398        2.90623       -3.13089
H          4.04179        1.65425       -4.59718
H          4.01517        3.14781       -3.56387
H          5.65488        0.61323       -3.02981
H          6.25900        2.17035       -3.70219
H          5.62428        2.10998       -2.01048
H          1.52099        0.12973       -4.49413
H          0.30386        1.42876       -4.64656
H          1.94321        1.68681       -5.31282
C          3.15577        4.56443        0.42265
C          3.05891        5.90322        0.10268
C          1.86349        6.06381       -0.55803
C          1.27615        4.81456       -0.58957
N          2.06837        3.89640       -0.02057
C         -0.07627        4.51742       -1.13500
N         -0.95663        3.94148       -0.10513
C         -1.36086        4.76115        1.06519
H          3.77492        6.67642        0.34012
H          3.98131        4.12255        0.96064
H          1.45094        6.98785       -0.93843
H         -0.54350        5.41032       -1.59323
H          0.02005        3.76730       -1.94001
C         -2.00091        6.08700        0.61454
C         -2.40797        3.95203        1.85475
C         -0.19201        5.02574        2.03732
H         -2.86168        5.88144       -0.05985
H         -2.35780        6.66510        1.48641
H         -1.26704        6.71657        0.06933
H         -1.97105        2.99901        2.22321
H         -2.76054        4.52774        2.73906
H         -3.29147        3.71677        1.22442
H          0.30652        4.06810        2.31767
H          0.56064        5.71677        1.62825
H         -0.55387        5.51391        2.96406
