96
speciation1702.ct
Na         0.95621       -0.04055        0.08024
Mg        -2.30706       -2.88923        4.75142
C         -1.07635       -1.96598        6.93454
C          0.64025       -3.01045        5.74173
O         -0.77051       -2.90413        5.92315
C         -0.75553       -0.53252        6.51295
C          1.02647       -4.07052        4.73154
H         -2.16894       -2.03290        7.10808
H         -0.60541       -2.23345        7.90800
H          1.09629       -2.06263        5.38818
H          1.10625       -3.32637        6.70204
H          0.80700       -3.68886        3.73082
H          2.12647       -4.22645        4.75755
H          0.51461       -5.03447        4.93372
H         -1.18649       -0.34051        5.51070
H         -1.18474        0.18127        7.24255
H          0.33951       -0.35882        6.48219
H          8.42959        1.97948       -0.53506
C          8.94724        3.99845       -1.10393
C          8.13464        2.73157       -1.29633
C          8.68437        4.61027        0.27292
H         10.02501        3.74512       -1.20130
H          8.66993        4.72225       -1.89821
H          7.60666        4.85852        0.37325
H          8.95681        3.88367        1.07020
C          9.50805        5.88057        0.46121
H          8.33483        2.29975       -2.30123
H         10.59237        5.65059        0.38160
H          9.23775        6.63149       -0.31148
H          9.30924        6.31310        1.46412
C         -2.18880        0.52144       -0.86298
C         -3.47053        0.68488       -0.37916
C         -3.46969        0.20852        0.91833
C         -2.18516       -0.24486        1.16558
N         -1.41379       -0.04055        0.08024
C         -1.69149       -0.86459        2.44942
N         -2.46525       -2.08644        2.79968
C         -2.49735       -3.20165        1.80263
H         -4.29833        1.14508       -0.90113
H         -1.82447        0.86248       -1.82315
H         -4.30331        0.21317        1.60826
H         -0.60641       -1.09699        2.37999
H         -1.80183       -0.11088        3.26104
C         -1.08809       -3.67144        1.42859
C         -3.25440       -4.34307        2.47393
C         -3.25975       -2.85884        0.50123
H         -0.58399       -4.04988        2.31648
H         -1.13632       -4.51145        0.70662
H         -0.48512       -2.86347        0.95929
H         -4.29422       -4.02493        2.69597
H         -3.29249       -5.22605        1.80401
H         -2.75464       -4.63520        3.42043
H         -4.26336       -2.43753        0.72051
H         -2.70369       -2.18793       -0.17370
H         -3.38602       -3.77053       -0.11510
Mg         6.09076        3.07646       -1.15027
C         -5.09519       -3.10571        5.42103
C         -3.94409       -4.48919        6.91394
O         -3.86760       -3.77416        5.67648
C         -5.40613       -1.99142        6.42898
C         -2.69969       -5.30990        7.19818
H         -5.01150       -2.64099        4.42138
H         -5.94777       -3.82348        5.34965
H         -4.07748       -3.81150        7.78422
H         -4.79046       -5.21752        6.87867
H         -1.83393       -4.64611        7.36981
H         -2.86061       -5.89740        8.13112
H         -2.49485       -6.00931        6.36434
H         -4.51798       -1.33913        6.55036
H         -6.26173       -1.38470        6.06809
H         -5.70038       -2.40548        7.41718
C          4.12019       -1.12694        0.07415
C          5.44653       -0.74673        0.08008
C          5.46076        0.63066        0.09415
C          4.14136        1.02926        0.09044
N          3.32621       -0.04055        0.08024
C          3.64492        2.43616        0.13835
N          4.11281        3.20851       -1.03397
C          3.63765        4.61601       -1.08505
H          6.30655       -1.40114        0.08156
H          3.75250       -2.14465        0.07040
H          6.33037        1.26263        0.11470
H          2.54162        2.39968        0.16555
H          4.03539        2.88453        1.06897
C          4.16334        5.44319        0.11008
C          4.18059        5.24448       -2.38186
C          2.09262        4.69347       -1.12333
H          5.27281        5.43683        0.13338
H          3.82102        6.49711        0.03222
H          3.78377        5.05717        1.07749
H          3.80286        4.69516       -3.27004
H          3.86403        6.30661       -2.47180
H          5.29192        5.21098       -2.39387
H          1.69456        4.09750       -1.97197
H          1.63655        4.33089       -0.18033
H          1.76094        5.74513       -1.24607
