95
speciation1409.ct
Na         1.09420        0.02909        0.01676
Mg         2.45434       -4.05812       -1.42914
C         -1.79814        1.23156       -0.48277
C         -1.56188       -0.26238        1.36503
O         -1.22580        0.02909        0.01676
C         -1.60951        2.47834        0.39110
C         -3.03570       -0.62223        1.55498
H         -1.31717        1.43429       -1.46148
H         -2.87642        1.07522       -0.70635
H         -0.97507       -1.15676        1.66317
H         -1.24506        0.54213        2.05976
H         -3.30271       -1.49552        0.92533
H         -3.21186       -0.88340        2.62182
H         -3.69499        0.23333        1.30334
H         -0.53326        2.63651        0.60804
H         -2.00528        3.36483       -0.14754
H         -2.18069        2.39890        1.34007
H          2.97744       -4.08988       -4.00635
C          1.43784       -5.57369       -3.67495
C          2.73511       -4.88753       -3.27165
C          0.30285       -4.54364       -3.73747
H          1.57098       -6.04865       -4.67132
H          1.19676       -6.35913       -2.92689
H          0.17738       -4.06371       -2.74214
H          0.55404       -3.75660       -4.48153
C         -1.01670       -5.19296       -4.14323
H          3.57718       -5.61001       -3.23357
H         -0.92271       -5.66443       -5.14462
H         -1.31219       -5.96344       -3.40007
H         -1.81131       -4.41829       -4.18923
C          1.31581       -3.67968        1.30584
C          1.38270       -2.87328        2.42783
C          2.33238       -1.90489        2.16268
C          2.79718       -2.16651        0.89128
N          2.18046       -3.24902        0.36820
C          3.85299       -1.38898        0.16904
N          3.46420        0.02909        0.01676
C          4.46233        0.85049       -0.75654
H          0.80529       -2.97800        3.32866
H          0.66625       -4.53479        1.18169
H          2.64082       -1.11032        2.82113
H          3.99476       -1.85788       -0.82436
H          4.78219       -1.47591        0.76536
C          4.52127        0.50260       -2.25583
C          4.05366        2.34073       -0.66567
C          5.91293        0.68100       -0.18388
H          3.55533        0.70637       -2.74482
H          5.29821        1.14384       -2.74486
H          4.81678       -0.54802       -2.42237
H          3.87820        2.69176        0.36133
H          4.84169        2.99864       -1.09804
H          3.10561        2.52424       -1.20200
H          6.02037        0.87658        0.90292
H          6.30322       -0.34438       -0.36052
H          6.62436        1.37151       -0.68346
Na         4.25419        1.33251        1.83167
Mg         9.77693        1.44565        3.91226
H         11.50493        3.38665        4.01158
C         11.59659        2.71528        1.96015
C         11.50546        2.42693        3.45302
C         11.57806        1.42091        1.14427
H         10.73339        3.35159        1.66730
H         12.53800        3.27240        1.76025
H         12.43428        0.77729        1.44239
H         10.63132        0.87030        1.33808
C         11.68492        1.71920       -0.34941
H         12.37108        1.81857        3.79144
H         10.83016        2.34676       -0.68082
H         12.63452        2.25336       -0.56809
H         11.67274        0.76877       -0.92305
C          7.98946       -0.82373        4.63506
C          6.65947       -1.19391        4.70139
C          5.91678       -0.06496        4.44849
C          6.82171        0.95964        4.23382
N          8.09077        0.48843        4.36025
C          6.50012        2.38147        3.86011
N          5.04418        2.63593        3.64658
C          4.67762        4.06563        3.44473
H          6.28299       -2.19356        4.87457
H          8.83854       -1.49001        4.73671
H          4.83533       -0.01243        4.39015
H          7.04925        2.60444        2.92171
H          6.89636        3.01249        4.67968
C          5.40763        4.69825        2.23299
C          3.16262        4.13142        3.18134
C          4.97271        4.90887        4.69984
H          5.13802        4.19727        1.28572
H          5.12703        5.77042        2.12948
H          6.51025        4.66574        2.33739
H          2.59684        3.72030        4.04803
H          2.83380        5.17793        3.01431
H          2.88821        3.53769        2.28569
H          4.45015        4.47829        5.58758
H          6.05617        4.97328        4.92328
H          4.61765        5.95034        4.56203
