96
speciation1732.ct
Na         1.34915        1.80388        0.17239
Mg         3.29004       -0.17991       -1.91980
C          3.14049        2.32877       -2.73835
C          4.94659        1.58489       -3.95193
O          4.17127        1.36837       -2.75498
C          2.13248        2.12927       -3.89062
C          6.16326        0.70900       -4.06924
H          2.59853        2.23593       -1.77348
H          3.56307        3.36023       -2.72245
H          4.41345        1.45098       -4.90061
H          5.31000        2.63337       -3.97558
H          5.97606       -0.11829       -4.77640
H          6.99479        1.24511       -4.54961
H          6.50610        0.44001       -3.07216
H          1.55314        1.19935       -3.71497
H          1.55578        3.06126       -4.00399
H          2.52179        2.02612       -4.91356
H          6.19954        4.47633        0.71885
C          6.31217        4.27603       -1.43554
C          5.81041        3.81060       -0.08068
C          5.84531        5.69577       -1.73375
H          7.42069        4.23499       -1.45643
H          5.92210        3.58385       -2.19220
H          4.74702        5.71988       -1.72072
H          6.24396        6.38343       -0.95644
C          6.30728        6.16159       -3.10798
H          6.21491        2.79260        0.10517
H          7.41212        6.09325       -3.18209
H          5.84210        5.53803       -3.90126
H          6.00061        7.21717       -3.26612
C         -1.63750        0.80604        0.43333
C         -2.28301       -0.40584        0.31095
C         -1.30004       -1.35857        0.10541
C         -0.09406       -0.67508        0.11344
N         -0.31419        0.63161        0.28075
C          1.28898       -1.25091       -0.05345
N          2.33954       -0.19293       -0.04597
C          3.22658       -0.16832        1.15663
H         -3.35334       -0.56365        0.35326
H         -2.11138        1.76382        0.59365
H         -1.45952       -2.41890       -0.04323
H          1.32721       -1.77026       -1.02912
H          1.43328       -2.01028        0.74156
C          4.04458       -1.44632        1.38573
C          4.21578        0.97937        0.92607
C          2.41406        0.05889        2.44503
H          4.74363       -1.59932        0.56186
H          4.67569       -1.34388        2.29587
H          3.39710       -2.33236        1.54339
H          3.67798        1.93118        0.78174
H          4.92345        1.09278        1.77494
H          4.80511        0.77574        0.00179
H          1.65925        0.79690        2.26077
H          1.80470       -0.81312        2.74322
H          3.07484        0.34400        3.29916
Mg         3.69984        3.84664        0.04811
C          4.37876       -2.73544       -2.13691
C          3.59429       -1.76028       -4.15837
O          3.42000       -1.88442       -2.76227
C          5.84794       -2.40034       -2.39537
C          3.28398       -3.05075       -4.89772
H          4.19883       -2.63043       -1.07406
H          4.17611       -3.80464       -2.31669
H          2.95549       -0.92998       -4.54007
H          4.61333       -1.50816       -4.40301
H          2.21101       -3.30883       -4.81807
H          3.57110       -2.93261       -5.96201
H          3.89761       -3.87556       -4.48776
H          5.91309       -1.32642       -2.34985
H          6.51696       -2.78285       -1.59613
H          6.20360       -2.77120       -3.38450
C          2.67302        7.95210       -0.95034
C          1.44782        8.25530       -1.49716
C          0.75021        7.06247       -1.64408
C          1.53417        6.06288       -1.22846
N          2.77810        6.56420       -0.79280
C          1.09990        4.62621       -1.04352
N          1.71632        3.97197        0.15142
C          1.27569        4.49996        1.48556
H          1.09662        9.25403       -1.72133
H          3.44052        8.66233       -0.66722
H         -0.27430        6.96607       -1.97724
H          1.34002        4.08133       -1.96465
H         -0.00722        4.56010       -1.01136
C         -0.24962        4.37997        1.65728
C          1.94109        3.67953        2.59024
C          1.67320        5.95675        1.73171
H         -0.58592        3.32810        1.54751
H         -0.54228        4.74336        2.66422
H         -0.77892        5.01749        0.92630
H          3.05237        3.64665        2.52626
H          1.63389        4.00523        3.60513
H          1.54782        2.69575        2.49759
H          2.77760        6.08445        1.67522
H          1.13703        6.61956        1.04641
H          1.31515        6.31306        2.71219
