110
speciation2014.ct
Na         1.16126        1.88072        0.37970
Mg         8.22654       -3.69604       -2.33300
C          1.41646        2.39520        3.69496
C          0.00122        3.82865        2.48340
O          1.12881        2.96778        2.40413
C          0.27943        1.56453        4.34700
C          0.21252        5.04137        3.40807
H          2.33491        1.80567        3.59949
H          1.78941        3.15056        4.41426
H         -0.18938        4.23006        1.47122
H         -0.91327        3.26836        2.77439
H          1.08261        5.63677        3.06363
H         -0.69616        5.67617        3.40088
H          0.36983        4.74826        4.46749
H         -0.20430        0.84851        3.65305
H          0.68853        0.98439        5.20258
H         -0.52080        2.22035        4.74190
H          8.10886       -5.67868       -0.67240
C         10.22443       -5.80787       -1.19140
C          8.77218       -5.49660       -1.54441
C         10.76992       -4.92447       -0.06786
H         10.27689       -6.87137       -0.86788
H         10.84680       -5.68402       -2.10368
H         10.75034       -3.86329       -0.37153
H         10.14895       -5.04511        0.84587
C         12.21386       -5.30123        0.25354
H          8.46873       -6.19521       -2.35274
H         12.26993       -6.35817        0.59091
H         12.85413       -5.17289       -0.64598
H         12.60177       -4.64672        1.06166
C         -1.87061        0.91713        0.07291
C         -2.41677       -0.31002       -0.23955
C         -1.36892       -1.18634       -0.41143
C         -0.21061       -0.44609       -0.19380
N         -0.52925        0.81710        0.11004
C          1.20465       -0.99364       -0.30836
N          2.24500        0.03300       -0.00400
C          3.01154       -0.19394        1.24487
H         -3.47093       -0.53462       -0.34993
H         -2.41947        1.83427        0.24106
H         -1.42989       -2.22866       -0.67044
H          1.36212       -1.35186       -1.34403
H          1.29610       -1.88861        0.33236
C          3.92247       -1.43532        1.23563
C          3.90474        1.05187        1.43301
C          2.03641       -0.36847        2.40821
H          4.67991       -1.38801        0.43108
H          4.45861       -1.49403        2.21306
H          3.33973       -2.37371        1.14097
H          3.30840        1.98571        1.44326
H          4.49196        0.99712        2.37451
H          4.61936        1.13329        0.58463
H          1.27609        0.39881        2.26261
H          1.48186       -1.32527        2.39475
H          2.55284       -0.33023        3.39113
Na         3.59933        0.09296       -1.94799
Mg         8.71266       -1.61458       -4.78075
C          2.89544        3.13558       -1.78406
C          0.67803        3.89242       -1.99350
O          1.54198        2.94977       -1.39781
C          3.51022        4.42689       -1.25183
C         -0.75196        3.49886       -1.69711
H          3.47635        2.29265       -1.36223
H          3.01405        3.05450       -2.88662
H          0.84868        4.91026       -1.58605
H          0.79037        3.88277       -3.10346
H         -0.90227        3.49707       -0.60090
H         -1.45297        4.22575       -2.15452
H         -0.95664        2.48717       -2.10789
H          3.35697        4.49067       -0.15698
H          4.59893        4.43454       -1.47382
H          3.06136        5.31119       -1.75083
H          9.19985       -0.56927       -7.14616
C          9.91662       -2.59180       -7.25900
C          9.75663       -1.28139       -6.50142
C         10.64633       -3.63720       -6.41526
H          8.90372       -2.97068       -7.51815
H         10.47871       -2.40063       -8.19935
H         11.65992       -3.26236       -6.15133
H         10.07760       -3.82405       -5.47834
C         10.78707       -4.94936       -7.18230
H         10.74138       -0.83265       -6.25173
H          9.78525       -5.35557       -7.43985
H         11.36499       -4.78993       -8.11794
H         11.32208       -5.69344       -6.55605
C          4.90101        1.08820       -4.85977
C          5.80480        0.79576       -5.85565
C          6.42863       -0.37401       -5.47806
C          5.89170       -0.72978       -4.25669
N          4.95365        0.15292       -3.89199
C          6.26157       -1.91276       -3.42395
N          7.69428       -1.93961       -3.10225
C          8.30879       -0.93709       -2.22308
H          5.97984        1.36482       -6.75767
H          4.23167        1.93661       -4.84472
H          7.18343       -0.89946       -6.03241
H          5.64412       -1.98073       -2.50721
H          6.04095       -2.81299       -4.03617
C          7.59852       -0.91128       -0.86161
C          9.76712       -1.38919       -2.05175
C          8.34925        0.46433       -2.87068
H          7.57571       -1.93485       -0.42768
H          8.11113       -0.22757       -0.15456
H          6.55328       -0.55716       -0.98107
H         10.28809       -1.40087       -3.03641
H         10.32756       -0.72294       -1.36381
H          9.79693       -2.41831       -1.65703
H          8.77482        0.39969       -3.89725
H          7.35076        0.93426       -2.92566
H          9.00109        1.14733       -2.28499
