96
speciation1066.ct
Na         1.03405        0.31359        0.49367
Mg         1.41341       -1.66453       -4.33319
C          2.28601        2.38119        2.10078
C          3.86507        1.53321        0.50796
O          2.71194        1.28118        1.30736
C          2.15882        3.72292        1.36635
C          5.13249        1.68822        1.35895
H          1.27318        2.11872        2.47074
H          2.92339        2.47511        3.00241
H          4.02284        0.65604       -0.15170
H          3.73014        2.39964       -0.17064
H          5.30000        0.77463        1.96666
H          6.01125        1.84372        0.69612
H          5.05784        2.56565        2.03448
H          1.52984        3.61133        0.45954
H          1.68801        4.46562        2.04408
H          3.15522        4.12490        1.08709
H          2.13202       -2.38967       -6.87870
C          0.06562       -3.04482       -6.96694
C          1.39272       -2.84701       -6.19028
C          0.21438       -4.05709       -8.11269
H         -0.73373       -3.44501       -6.31920
H         -0.27314       -2.06179       -7.35649
H          1.02017       -3.73112       -8.80090
H          0.48073       -5.05317       -7.69128
C         -1.08594       -4.20223       -8.90854
H          1.80239       -3.82977       -5.88254
H         -1.91239       -4.56815       -8.26087
H         -1.37773       -3.22579       -9.34966
H         -0.94052       -4.93178       -9.73396
C          1.27718        0.58234       -5.86240
C          1.24118        1.94186       -6.02264
C          1.09132        2.47425       -4.77005
C          1.06280        1.41676       -3.86589
N          1.14743        0.25054       -4.56287
C          1.10595        1.60273       -2.33957
N          0.03393        0.98272       -1.53138
C         -1.31656        1.63534       -1.58688
H          1.35020        2.47775       -6.95669
H          1.42614       -0.12993       -6.65901
H          1.09368        3.53343       -4.53172
H          1.18824        2.67986       -2.09317
H          2.06066        1.14896       -2.01422
C         -1.89892        1.66184       -3.01872
C         -2.30382        0.85295       -0.71597
C         -1.27445        3.08314       -1.03622
H         -1.93462        0.64009       -3.45059
H         -2.93247        2.07198       -3.01544
H         -1.32325        2.32586       -3.68556
H         -2.01103        0.95071        0.34502
H         -3.33125        1.27166       -0.78802
H         -2.34367       -0.21307       -1.02896
H         -0.86532        3.09571       -0.00247
H         -0.66797        3.75450       -1.67466
H         -2.29952        3.51972       -1.00845
Mg         0.08066       -0.80083       -2.19051
C         -1.00917       -1.21930        1.94034
C          0.83483       -1.84788        3.19245
O          0.39911       -1.20203        1.98696
C         -1.64210       -0.26917        2.96899
C          2.34247       -1.97574        3.29441
H         -1.25963       -0.90525        0.92435
H         -1.43503       -2.24568        2.00217
H          0.51088       -1.28929        4.09387
H          0.43388       -2.88807        3.22701
H          2.80993       -0.97204        3.35215
H          2.57882       -2.52659        4.23309
H          2.74809       -2.54996        2.43729
H         -1.10844        0.70534        2.97365
H         -2.71219       -0.10187        2.73269
H         -1.59756       -0.70910        3.98804
C          4.30882       -1.17266       -3.62055
C          5.05312       -1.66705       -2.56675
C          4.19866       -2.44902       -1.80446
C          2.96481       -2.37444       -2.41733
N          3.05450       -1.63877       -3.52972
C          1.65457       -2.98293       -1.95487
N          0.54951       -2.52494       -2.83059
C         -0.63636       -3.38982       -2.97431
H          6.09967       -1.47394       -2.37209
H          4.66271       -0.51586       -4.40683
H          4.44640       -2.98966       -0.90185
H          1.76477       -4.08170       -1.92594
H          1.44902       -2.61472       -0.92729
C         -1.23579       -3.76208       -1.60730
C         -1.68414       -2.59347       -3.76872
C         -0.27227       -4.70471       -3.70541
H         -1.46222       -2.85213       -1.01633
H         -2.17801       -4.33809       -1.75070
H         -0.53664       -4.40163       -1.02746
H         -1.25045       -2.17652       -4.69528
H         -2.56315       -3.22398       -4.02311
H         -2.03292       -1.72248       -3.17827
H          0.15692       -4.52652       -4.68759
H          0.47408       -5.30040       -3.14661
H         -1.16768       -5.34521       -3.84642
