95
speciation1787.ct
Na         4.79200        8.64607        1.81026
Mg         2.26180        4.50119       -1.26810
C          2.39499        3.96495       -4.04539
C          0.69289        2.69167       -3.01443
O          1.73173        3.63244       -2.84564
C          1.58502        4.97802       -4.84626
C          0.13529        2.27949       -1.66366
H          3.36850        4.40661       -3.77986
H          2.66744        3.06865       -4.64539
H         -0.13076        3.13632       -3.60058
H          1.08695        1.76863       -3.50343
H         -0.28337        3.16128       -1.14184
H         -0.68068        1.54425       -1.82040
H          0.92490        1.81519       -1.03519
H          1.29984        5.83044       -4.19545
H          2.18487        5.35425       -5.69895
H          0.66582        4.50207       -5.24340
H         -4.00854        9.89287       -0.88262
C         -5.34231       10.27923       -2.53224
C         -3.95611        9.95501       -1.99001
C         -6.34290        9.16843       -2.22725
H         -5.68643       11.23093       -2.06669
H         -5.27623       10.43102       -3.62991
H         -6.00625        8.23341       -2.71969
H         -6.40056        8.99805       -1.12881
C         -7.73185        9.54196       -2.74028
H         -3.34464       10.84259       -2.24519
H         -8.10813       10.44807       -2.21679
H         -7.69935        9.74273       -3.83247
H         -8.43571        8.70464       -2.55229
C          3.93010        9.03144       -1.13173
C          3.65411        8.40446       -2.31917
C          3.79179        7.06181       -2.09363
C          4.18257        6.91668       -0.78050
N          4.27072        8.12956       -0.19031
C          4.51752        5.61878       -0.08321
N          4.25806        4.48498       -0.99133
C          4.77043        3.16013       -0.55925
H          3.35798        8.86666       -3.25109
H          3.88543       10.09934       -0.96187
H          3.62593        6.29726       -2.82220
H          5.58759        5.68399        0.19455
H          3.90628        5.53249        0.82519
C          4.13568        2.70799        0.76834
C          4.40270        2.13874       -1.64589
C          6.31333        3.16420       -0.42912
H          3.03232        2.65596        0.66394
H          4.50231        1.69585        1.04717
H          4.39636        3.39820        1.59670
H          4.83253        2.43419       -2.62738
H          4.78704        1.12723       -1.38944
H          3.30467        2.05724       -1.75211
H          6.78561        3.50161       -1.37637
H          6.66593        3.81250        0.39657
H          6.68581        2.13923       -0.21074
Na         5.40761        4.88008       -2.76500
Mg        -2.85825        8.13118       -2.46802
H         -4.19480        7.85014       -4.85284
C         -2.88441        6.12826       -4.86086
C         -3.15005        7.60899       -4.55805
C         -3.83267        5.22669       -4.06310
H         -3.02590        5.93419       -5.95044
H         -1.83066        5.89529       -4.59700
H         -3.72829        5.45044       -2.98164
H         -4.88356        5.42512       -4.37097
C         -3.52117        3.74719       -4.28590
H         -2.47381        8.22235       -5.19182
H         -3.63126        3.47673       -5.35789
H         -2.48531        3.52155       -3.95836
H         -4.22113        3.12543       -3.68808
C          1.19110        4.93224        1.39552
C          0.18422        5.42341        2.19310
C         -0.75822        5.96451        1.34771
C         -0.27696        5.79058        0.06122
N          0.92335        5.14783        0.09149
C         -1.00694        6.26725       -1.17546
N         -1.36306        7.71174       -1.13135
C         -0.24381        8.69347       -1.20788
H          0.14555        5.39023        3.27408
H          2.07757        4.44365        1.76674
H         -1.67813        6.44286        1.63974
H         -0.45212        6.00687       -2.09899
H         -1.95792        5.69837       -1.21328
C          0.55887        8.48394       -2.49341
C         -0.80878       10.11895       -1.27148
C          0.65928        8.65259        0.04980
H         -0.11782        8.48619       -3.37524
H          1.27252        9.31800       -2.62063
H          1.10140        7.52130       -2.46888
H         -1.46663       10.33866       -0.40380
H          0.01648       10.86801       -1.26971
H         -1.33618       10.26296       -2.22745
H          0.04164        8.77027        0.96794
H          1.25638        7.72936        0.12416
H          1.40087        9.47835        0.03686
