81
speciation611.ct
Na         2.03884       -1.70263        3.14389
Mg         2.14970        0.60896       -2.86504
C         -0.14447        0.06728       -1.25970
C          0.18367        2.37342       -1.27070
O          0.78957        1.11479       -1.52046
C         -1.41170        0.04727       -2.11896
C          1.19870        3.49464       -1.32136
H          0.34462       -0.88632       -1.47812
H         -0.39715        0.03613       -0.17556
H         -0.63239        2.59230       -1.99056
H         -0.23343        2.39288       -0.23621
H          1.63516        3.57179       -2.33196
H          0.68807        4.44957       -1.07278
H          2.01153        3.31953       -0.58952
H         -1.14810        0.02957       -3.19582
H         -1.98325       -0.87730       -1.87843
H         -2.07688        0.90449       -1.89551
H          4.53142        1.57197       -3.95090
C          5.11240        2.08121       -1.94839
C          4.02270        1.90776       -3.02398
C          5.85372        0.77814       -1.62005
H          5.86642        2.83774       -2.27719
H          4.63394        2.47194       -1.02644
H          6.52870        0.96394       -0.75388
H          5.11107        0.01216       -1.34505
C          6.71751        0.24236       -2.76325
H          3.64266        2.92686       -3.25194
H          6.10619        0.00036       -3.65486
H          7.50090        0.98136       -3.04224
H          7.21732       -0.69196       -2.43180
C          3.01940       -2.28874       -3.28002
C          3.16329       -3.58198       -2.80013
C          2.81438       -3.54421       -1.47762
C          2.51501       -2.23009       -1.17699
N          2.57715       -1.44769       -2.31947
C          2.12818       -1.80447        0.23584
N          2.95358       -2.39666        1.32984
C          4.39985       -2.08398        1.43117
H          3.47614       -4.45168       -3.35199
H          3.20768       -1.99568       -4.30030
H          2.81362       -4.38432       -0.79151
H          1.10451       -2.20211        0.41115
H          2.05788       -0.70404        0.33039
C          4.61614       -0.56861        1.54776
C          4.95414       -2.75056        2.71108
C          5.19357       -2.67818        0.25210
H          4.09513       -0.17726        2.44779
H          5.69862       -0.33401        1.63061
H          4.20778       -0.04121        0.66825
H          4.80236       -3.85232        2.68737
H          6.04848       -2.56405        2.80296
H          4.46623       -2.35249        3.62538
H          4.99490       -3.77092        0.17598
H          4.95026       -2.18948       -0.70370
H          6.28454       -2.54090        0.39238
Mg         2.74729       -4.33534        1.47781
C          1.21783       -0.17088       -5.73057
C          0.65345        0.25160       -6.91922
C          0.37192        1.58018       -6.76289
C          0.78257        1.92188       -5.49574
N          1.30101        0.84160       -4.83113
C          0.66101        3.30994       -4.91621
N         -0.17107        4.18953       -5.76472
C         -0.43135        5.55284       -5.22894
H          0.45795       -0.33553       -7.80715
H          1.54921       -1.18069       -5.55283
H         -0.07866        2.22987       -7.50769
H          0.14002        3.14953       -3.96981
H          1.67239        3.73841       -4.76615
C          0.77023        6.46638       -5.52216
C         -1.67539        6.12835       -5.93435
C         -0.71874        5.55461       -3.71209
H          0.95861        6.51678       -6.61708
H          0.57964        7.49824       -5.15280
H          1.68619        6.08605       -5.02798
H         -2.55821        5.47354       -5.76812
H         -1.92216        7.13901       -5.53504
H         -1.51039        6.22547       -7.02793
H         -1.55230        4.86031       -3.46961
H          0.18585        5.26190       -3.15313
H         -0.98996        6.57134       -3.35623
