83
speciation508.ct
Na         1.00188        0.09162        0.04003
Mg         4.09245        1.86153       -0.85670
C         -1.92785        1.01152       -0.85430
C         -1.84697        0.22495        1.35721
O         -1.31812        0.09162        0.04003
C         -1.82080        2.48828       -0.43418
C         -1.12229       -0.67545        2.35400
H         -1.41637        0.88388       -1.82861
H         -2.99529        0.74613       -1.03379
H         -1.73319        1.25340        1.76085
H         -2.91835       -0.07120        1.35855
H         -0.06453       -0.35800        2.47762
H         -1.62106       -0.58655        3.34587
H         -1.16007       -1.73649        2.03607
H         -0.81776        2.69775       -0.01081
H         -2.00659        3.14260       -1.31213
H         -2.57570        2.74542        0.33759
C          7.14236        8.03353       -1.68155
C          6.44020        8.50789       -0.54165
C          5.50854        7.60842        0.15460
C          5.69137        6.37479       -0.44763
N          6.75460        6.80854       -2.03161
C          4.09111        2.82623        0.16092
N          3.37188        0.09162        0.04003
C          3.78205       -1.05781       -0.77246
H          6.59224        9.51358       -0.17823
H          7.94133        8.56065       -2.19231
H          4.87737        7.87849        0.94344
H          4.51042        2.61848        1.16698
H          3.17929        3.22420        0.62445
C          5.22882       -1.42300       -0.51314
C          2.94275       -2.26943       -0.33650
C          3.48760       -0.78864       -2.23265
H          5.41861       -1.62585        0.56105
H          5.54504       -2.30065       -1.12006
H          5.80672       -0.58372       -0.78282
H          1.86197       -2.08281       -0.50982
H          3.23293       -3.17730       -0.91071
H          3.09049       -2.47087        0.74611
H          2.39825       -0.67106       -2.40038
H          3.96245        0.15981       -2.47992
H          3.85437       -1.61329       -2.88325
Na         6.25582        4.64000       -2.84743
C          1.40525        2.39234       -1.92158
C          2.42029        4.42136       -2.50805
O          2.45888        3.27331       -1.62680
C          1.51181        1.78119       -3.30728
C          1.15849        5.31584       -2.45196
H          1.48310        1.60431       -1.18319
H          0.41097        2.82733       -1.75981
H          3.15532        5.19607       -2.24523
H          2.64984        4.10489       -3.54072
H          1.21847        6.03344       -1.60164
H          1.14180        5.91912       -3.38734
H          0.18918        4.79464       -2.40388
H          2.54263        1.42818       -3.45639
H          0.78760        0.94957       -3.40550
H          1.28726        2.52710       -4.09132
C          5.16314        2.11571       -4.81116
C          5.23362        0.75034       -4.96547
C          5.91608        0.25217       -3.86435
C          6.21713        1.33348       -3.04597
N          5.75704        2.47147       -3.66324
C          7.04791        1.26270       -1.70381
N          6.39933        1.81250       -0.39435
C          6.62780        3.34773       -0.18730
H          4.85217        0.18808       -5.80837
H          4.74023        2.82047       -5.51628
H          6.15940       -0.78596       -3.69036
H          7.99538        1.74559       -1.92993
H          7.42704        0.24845       -1.54443
C          5.71126        3.90037       -1.14070
C          6.24581        4.11324        1.16456
C          8.06053        3.86838       -0.46684
H          4.99861        3.24537       -1.74859
H          4.76384        4.25180       -1.64948
H          6.14478        3.30959       -1.76881
H          6.30614        3.50795        2.06887
H          6.81891        5.05582        1.31710
H          5.22056        4.59717        1.18843
H          8.64413        3.62125        0.42547
H          8.58075        3.55297       -1.37260
H          8.03159        4.98092       -0.58552
