96
speciation1376.ct
Na         1.49375        1.87867        0.17879
Mg         3.79552       -0.50394       -2.64520
C         -0.19346        4.20014       -1.72531
C          1.76426        5.10469       -0.70157
O          0.82538        4.02887       -0.68430
C          0.21016        4.20916       -3.23121
C          1.28514        6.48416       -0.29896
H         -0.91916        3.39385       -1.67274
H         -0.81554        5.09183       -1.53157
H          2.67838        4.78580       -0.15832
H          2.03433        5.40283       -1.69794
H          1.13088        6.57692        0.78284
H          2.08349        7.20238       -0.61832
H          0.38517        6.77608       -0.87991
H          0.66475        3.26382       -3.57545
H         -0.67767        4.27361       -3.88397
H          0.85727        5.07034       -3.49819
H          3.00240       -1.90664       -4.77145
C          2.20424        0.12621       -5.17586
C          2.50695       -1.08051       -4.23019
C          1.37071       -0.19583       -6.42691
H          1.66521        0.92162       -4.61260
H          3.16084        0.56588       -5.52979
H          1.23767        0.74724       -7.00621
H          1.92307       -0.91540       -7.06497
C         -0.01777       -0.74889       -6.12049
H          1.56525       -1.39021       -3.75832
H          0.06448       -1.72964       -5.61359
H         -0.59496       -0.04170       -5.48687
H         -0.56952       -0.89708       -7.07390
C          4.25241        1.52415       -3.23840
C          4.06994        2.83387       -3.22970
C          2.82788        3.00631       -2.62112
C          2.27809        1.76856       -2.16146
N          3.28308        0.91613       -2.55688
C          0.71679        1.25584       -1.53796
N          0.04210        0.81600       -0.13197
C         -1.24769        1.19533        0.78572
H          4.72307        3.57857       -3.68960
H          5.15872        1.05911       -3.61618
H          2.55023        3.96414       -2.73618
H          0.81933        0.24781       -1.96967
H         -0.05130        1.60293       -2.22111
C         -2.38378        1.95495        0.07420
C         -2.05620       -0.05912        1.37284
C         -1.00554        2.07094        2.10455
H         -2.81232        1.37444       -0.76089
H         -3.24260        2.11035        0.78546
H         -2.12865        2.98991       -0.14654
H         -1.67371       -0.65071        2.22592
H         -2.97038        0.27095        1.92736
H         -2.40807       -0.74432        0.58913
H         -0.56920        1.59736        3.00348
H         -0.52606        3.05039        1.93149
H         -1.97917        2.29337        2.61087
Mg         0.36907       -1.19592       -0.18558
C         -1.58083       -3.06540       -1.80904
C         -1.53014       -3.37241        0.48534
O         -0.77897       -2.88315       -0.62947
C         -0.95443       -2.49540       -3.06151
C         -1.57749       -4.91110        0.57587
H         -1.66220       -4.15083       -2.03327
H         -2.60771       -2.63769       -1.71070
H         -1.06857       -2.99997        1.41527
H         -2.57815       -2.99203        0.48582
H         -0.55807       -5.33811        0.67169
H         -2.18996       -5.21801        1.45280
H         -2.07696       -5.36601       -0.30152
H          0.05094       -2.94046       -3.19758
H         -1.58325       -2.78739       -3.93847
H         -0.91049       -1.38888       -3.00080
C          5.80977        1.19796       -0.68969
C          6.17681        1.04224        0.61762
C          5.48476       -0.03582        1.06885
C          4.60382       -0.40508        0.04155
N          4.93343        0.21958       -1.05345
C          3.35513       -1.23152       -0.05307
N          2.22740       -0.55146        0.63458
C          2.15713       -0.90862        2.07885
H          6.85091        1.65119        1.21096
H          6.16067        2.00838       -1.31222
H          5.64186       -0.34663        2.07441
H          3.50370       -2.29535        0.15339
H          3.02402       -1.25980       -1.10416
C          3.24763       -0.26403        2.90452
C          0.93212       -0.30001        2.55568
C          2.07285       -2.43784        2.35884
H          3.45604        0.76722        2.51915
H          2.99345       -0.17785        3.97761
H          4.04823       -0.99435        2.91980
H          0.21503       -0.78888        1.91908
H          0.72008       -0.47947        3.63255
H          1.08052        0.76885        2.32806
H          1.15051       -2.88367        1.93652
H          2.93169       -3.00789        1.96947
H          2.08723       -2.61113        3.45320
