95
speciation1682.ct
Na         1.68857       -0.45008       -0.21660
Mg         3.06233        2.02855       -3.30060
C          4.30234        4.58537       -5.26981
C          2.03242        4.56041       -4.98982
O          3.21350        3.77195       -4.76200
C          5.15396        5.29482       -4.23600
C          2.06890        5.92317       -4.23288
H          3.96461        5.35119       -6.01203
H          4.91688        4.10919       -5.99614
H          1.86492        4.75509       -6.07229
H          1.14014        3.95833       -4.78236
H          2.80386        6.63165       -4.66942
H          1.09024        6.42959       -4.21263
H          2.40830        5.78512       -3.20597
H          4.59136        5.62537       -3.38920
H          6.01068        4.67730       -3.90068
H          5.47673        6.25688       -4.67327
H          1.37146        0.34964       -4.44894
C         -0.25520        0.91227       -3.17242
C          1.24970        0.81578       -3.44945
C         -1.00347        1.81762       -4.14290
H         -0.68202       -0.11546       -3.25732
H         -0.41344        1.25103       -2.12630
H         -0.62574        2.85018       -4.04672
H         -0.84846        1.45952       -5.18392
C         -2.50114        1.81647       -3.83617
H          1.59988        0.09619       -2.68401
H         -2.92408        0.79460       -3.95128
H         -2.68440        2.16671       -2.79747
H         -3.02567        2.49705       -4.53832
C          4.75798       -1.07036       -0.39622
C          6.00740       -0.47230       -0.50265
C          5.79909        0.87773       -0.46041
C          4.43497        1.05765       -0.37949
N          3.79402       -0.12996       -0.36033
C          3.79293        2.39273       -0.23574
N          2.81379        2.75240       -1.28939
C          2.09970        4.02108       -0.90920
H          6.96161       -0.98023       -0.53379
H          4.57715       -2.14209       -0.39082
H          6.55574        1.64889       -0.46747
H          3.29209        2.33061        0.75522
H          4.59361        3.13976       -0.18661
C          3.11889        5.18576       -0.85355
C          0.96422        4.19449       -1.88939
C          1.39152        4.03399        0.47595
H          3.85674        5.07068       -1.63819
H          2.64035        6.18582       -0.86898
H          3.72622        5.14760        0.07886
H          0.12944        3.49694       -1.68968
H          0.56590        5.23242       -1.90700
H          1.34898        3.85444       -2.81941
H          0.64373        3.21870        0.55877
H          2.08852        3.97561        1.33433
H          0.85808        5.00631        0.60216
Na         4.12379        2.36081       -3.22523
Mg         6.54137        3.57641       -5.54876
H          7.21877        6.20189       -5.73400
C          8.24024        5.31575       -7.35970
C          7.67678        5.22398       -5.94619
C          7.12708        5.42724       -8.40468
H          8.89162        6.21759       -7.41517
H          8.85874        4.41738       -7.56790
H          6.50257        4.51121       -8.37570
H          6.47859        6.30418       -8.18738
C          7.71667        5.58930       -9.80442
H          8.52764        5.11726       -5.24085
H          8.29510        6.53636       -9.86944
H          8.38862        4.73780      -10.04435
H          6.89977        5.62139      -10.55533
C          4.04928       -1.14869       -3.26504
C          5.08056       -2.03855       -3.59499
C          6.11572       -1.27858       -4.05761
C          5.67322        0.03069       -3.98216
N          4.40393        0.13782       -3.51142
C          6.42286        1.15445       -4.50346
N          5.43379        1.96922       -5.16107
C          4.88845        1.42663       -6.52869
H          5.07081       -3.12230       -3.53795
H          3.09890       -1.48443       -2.89893
H          7.06320       -1.62985       -4.45047
H          7.26902        0.86849       -5.16211
H          6.83014        1.73809       -3.65420
C          4.16955        0.05059       -6.45502
C          3.80561        2.32078       -7.24388
C          6.02995        1.30475       -7.56169
H          3.31395        0.08294       -5.75325
H          4.85493       -0.78055       -6.23183
H          3.73528       -0.23265       -7.44185
H          4.17024        3.28078       -7.65703
H          3.44562        1.83756       -8.18084
H          2.88490        2.44510       -6.64536
H          6.53251        2.28312       -7.69655
H          6.77705        0.54358       -7.27289
H          5.63103        0.99002       -8.55472
