110
speciation2159.ct
Na         2.03794       -4.42838        0.10461
Mg         2.30493        1.25181        4.18132
C          2.66471       -6.51028       -1.97840
C          1.79964       -7.60608       -0.10188
O          2.46269       -6.43718       -0.57285
C          1.37200       -6.45286       -2.80316
C          1.77337       -7.64558        1.41545
H          3.29793       -5.64618       -2.26306
H          3.25686       -7.41407       -2.25371
H          0.74957       -7.65794       -0.46081
H          2.34986       -8.52247       -0.42643
H          1.18849       -6.78819        1.80496
H          1.28791       -8.59064        1.74864
H          2.80634       -7.61654        1.81884
H          0.77990       -5.55993       -2.52996
H          1.62426       -6.39483       -3.88302
H          0.75398       -7.36390       -2.66093
H          3.65065        3.53920        4.82814
C          4.95436        3.04013        3.15845
C          4.06081        2.63243        4.33578
C          6.07850        3.98111        3.65192
H          5.40094        2.12458        2.70892
H          4.35120        3.56246        2.39671
H          5.60879        4.88053        4.10244
H          6.69788        3.48235        4.43282
C          7.00994        4.43947        2.53226
H          4.80420        2.17117        5.00178
H          7.61475        3.59142        2.14644
H          6.42766        4.88957        1.70215
H          7.70550        5.21053        2.93125
C          4.36948       -0.97458        3.96641
C          4.90649       -2.10614        3.36165
C          4.13604       -2.34813        2.25994
C          3.16973       -1.37909        2.24642
N          3.26423       -0.52479        3.31587
C          2.22150       -1.21510        1.10747
N          1.34921       -2.36667        0.76553
C          0.37068       -1.99445       -0.30142
H          5.77359       -2.66807        3.67926
H          4.79152       -0.52566        4.84363
H          4.28683       -3.12948        1.52853
H          2.86740       -0.95360        0.24152
H          1.61896       -0.38324        1.41115
C          1.08276       -1.58411       -1.61869
C         -0.51175       -3.21249       -0.59657
C         -0.56883       -0.84973        0.14729
H          1.75640       -2.39356       -1.97015
H          0.34092       -1.36130       -2.41471
H          1.67940       -0.65593       -1.50231
H         -1.06704       -3.52704        0.31121
H         -1.24674       -2.96852       -1.39573
H          0.09820       -4.06018       -0.95510
H         -0.98909       -1.05796        1.15481
H         -0.04573        0.11461        0.15532
H         -1.40417       -0.70421       -0.57020
Na         0.21819       -2.78722        2.52967
Mg         0.51920        2.51692        6.73244
C          0.60647        2.38184        1.82191
C          0.26827        3.33510        3.92954
O          0.77799        2.20350        3.21752
C          1.39588        3.50804        1.16101
C         -1.26828        3.50390        3.86651
H          0.96903        1.49607        1.34228
H         -0.47491        2.40699        1.56200
H          0.52633        3.20558        4.98129
H          0.76878        4.27914        3.63864
H         -1.79266        2.59511        4.22884
H         -1.57949        4.36040        4.50468
H         -1.62179        3.74491        2.84245
H          2.46952        3.29619        1.28655
H          1.15045        3.49008        0.07739
H          1.16768        4.52994        1.52456
H         -0.19014        5.03317        6.63348
C          0.22411        4.76425        8.74205
C         -0.31379        4.25064        7.41211
C          1.70548        5.13865        8.64002
H         -0.35850        5.66612        9.03261
H          0.08292        3.97899        9.51489
H          2.29684        4.24819        8.35413
H          1.84611        5.92272        7.86373
C          2.22562        5.66714        9.97396
H         -1.39601        4.02440        7.51420
H          1.66563        6.57958       10.27114
H          2.11065        4.89493       10.76415
H          3.30174        5.92477        9.88161
C         -2.22088        0.23678        8.56571
C         -2.02212       -1.12114        8.52590
C         -1.14658       -1.37899        7.48358
C         -0.81419       -0.21528        6.90831
N         -1.47857        0.86617        7.54803
C          0.16892       -0.04810        5.76040
N          1.33177        0.82570        6.06942
C          2.20306        0.31076        7.21011
H         -2.46300       -1.84768        9.20609
H         -2.85428        0.76029        9.27902
H         -0.77015       -2.35187        7.20010
H         -0.39554        0.41017        4.92317
H          0.52154       -1.03828        5.40660
C          2.71522       -1.11856        6.94966
C          3.39000        1.25321        7.37300
C          1.54498        0.28937        8.61899
H          3.06827       -1.20796        5.93460
H          3.53750       -1.39313        7.64715
H          1.91045       -1.87213        7.05362
H          3.04667        2.29361        7.54350
H          4.04824        0.96072        8.22133
H          4.00552        1.17000        6.49598
H          1.09566        1.26515        8.88931
H          0.81768       -0.52225        8.75424
H          2.30953        0.03659        9.39096
