95
speciation1247.ct
Na         3.43777        0.05461        2.68254
Mg         2.60799        4.75330       -1.12081
C          1.41172        0.81859        5.28901
C          3.32596       -0.40096        5.78181
O          2.42192       -0.01651        4.76710
C          0.43007        1.19211        4.19153
C          4.42277       -1.27779        5.18798
H          0.82852        0.24993        6.05072
H          1.83116        1.74542        5.74042
H          3.80928        0.48829        6.24606
H          2.80211       -1.01270        6.55054
H          5.00667       -0.70951        4.43401
H          5.11293       -1.60820        5.99351
H          3.98006       -2.17571        4.70722
H          0.04280        0.27495        3.69857
H         -0.42520        1.74616        4.63516
H          0.92824        1.83547        3.43756
H          3.81673        7.02864       -0.34583
C          5.12530        6.42551       -1.99057
C          4.20252        6.10031       -0.81047
C          4.41899        7.15855       -3.13689
H          5.97158        7.05233       -1.62982
H          5.54819        5.47529       -2.38329
H          5.15912        7.32012       -3.95155
H          3.59248        6.53120       -3.52841
C          3.87190        8.52451       -2.72613
H          4.81176        5.58901       -0.03550
H          3.09983        8.41909       -1.94495
H          4.68631        9.17103       -2.33724
H          3.40502        9.01752       -3.60404
C          5.10026       -0.98051        0.10397
C          5.69173       -0.74937       -1.12181
C          5.43539        0.57137       -1.44122
C          4.67605        1.07604       -0.41109
N          4.47551        0.12726        0.55305
C          4.14624        2.49315       -0.39934
N          3.21019        2.80343       -1.52387
C          1.91198        2.05705       -1.51983
H          6.25085       -1.45830       -1.71721
H          5.12564       -1.91757        0.64275
H          5.74743        1.08418       -2.33657
H          3.67306        2.71701        0.57592
H          5.01813        3.17644       -0.47649
C          1.16971        2.29712       -0.18679
C          1.05292        2.64231       -2.65283
C          2.01867        0.51217       -1.78022
H          1.10043        3.38228        0.02235
H          0.14484        1.87330       -0.21856
H          1.69348        1.81518        0.66510
H          1.57170        2.51764       -3.62042
H          0.07530        2.11402       -2.71458
H          0.87192        3.72353       -2.51293
H          3.02517        0.10886       -1.86967
H          1.50059       -0.07684       -0.99164
H          1.55606        0.20887       -2.74135
Na         3.43400        4.40640       -4.75788
Mg         4.10499        2.79650       -3.37341
H         -0.11117        5.22550       -0.76402
C          0.23390        7.16131       -1.62068
C          0.71351        5.96950       -0.76726
C          0.02738        6.74602       -3.07901
H         -0.72737        7.55528       -1.21125
H          0.97202        7.98265       -1.56160
H          0.98541        6.34348       -3.46439
H         -0.75227        5.95454       -3.13662
C         -0.39890        7.91840       -3.96603
H          0.80747        6.33645        0.27880
H         -1.39622        8.30770       -3.66726
H          0.34493        8.74169       -3.91135
H         -0.45964        7.57301       -5.02059
C          4.13402        6.80414       -6.77987
C          5.12074        6.86394       -7.74489
C          5.82794        5.67758       -7.64804
C          5.22835        4.94371       -6.63408
N          4.19133        5.62643       -6.12547
C          5.72998        3.61625       -6.05643
N          4.68589        2.81780       -5.34039
C          4.53657        1.41440       -5.81732
H          5.30437        7.68477       -8.43364
H          3.40677        7.58661       -6.57929
H          6.68130        5.40562       -8.25508
H          6.19857        3.07474       -6.90080
H          6.55239        3.84933       -5.34951
C          5.88291        0.65262       -5.69999
C          3.52714        0.70599       -4.91579
C          4.01374        1.33445       -7.26795
H          6.28640        0.73465       -4.66957
H          5.74194       -0.42374       -5.93613
H          6.65113        1.02844       -6.40311
H          2.52619        1.16083       -5.02331
H          3.43645       -0.37130       -5.17865
H          3.85880        0.76995       -3.86382
H          3.02364        1.82914       -7.35552
H          4.70828        1.80402       -7.99237
H          3.89311        0.26865       -7.56896
