81
speciation601.ct
Na         4.76085        3.24592        2.05028
Mg         3.90699        2.67101       -3.01541
C          5.53894        5.25435       -2.77864
C          6.35468        3.62639       -4.29520
O          5.53019        3.87716       -3.15543
C          5.17043        6.26488       -3.87019
C          7.85057        3.90866       -4.05954
H          4.82675        5.38699       -1.96634
H          6.51491        5.52498       -2.31868
H          6.29142        2.55621       -4.54288
H          5.98544        4.15570       -5.19742
H          8.22948        3.32266       -3.19600
H          8.43040        3.61936       -4.96314
H          8.04753        4.98683       -3.88389
H          4.19398        6.01747       -4.30790
H          5.10280        7.27932       -3.42364
H          5.93717        6.30762       -4.66960
H          4.21113       -0.11574       -2.95620
C          5.62676        0.91154       -1.69719
C          4.84046        0.79213       -2.98897
C          6.37830       -0.36200       -1.31224
H          6.33428        1.75879       -1.79860
H          4.92493        1.15729       -0.87427
H          6.95721       -0.12808       -0.39406
H          5.66177       -1.17998       -1.07506
C          7.32959       -0.83632       -2.40570
H          5.50083        0.66155       -3.86815
H          6.75252       -1.23089       -3.26977
H          7.97723       -0.00090       -2.74517
H          7.96307       -1.65561       -2.00998
C          2.01781        4.26446        3.04152
C          0.79456        4.77827        2.66965
C          0.80954        4.86259        1.29259
C          2.03988        4.37178        0.87233
N          2.77693        4.01892        1.95120
C          2.49666        4.26123       -0.58266
N          2.78709        2.88523       -1.09578
C          1.61794        1.94390       -1.05165
H         -0.01857        5.05919        3.33117
H          2.33268        4.07851        4.06209
H          0.00131        5.22136        0.66644
H          1.77619        4.77190       -1.24794
H          3.41994        4.85301       -0.59522
C          0.44090        2.50583       -1.86886
C          2.03016        0.62117       -1.68594
C          1.14997        1.57553        0.38494
H          0.78997        2.77437       -2.88813
H         -0.37390        1.75683       -1.95488
H          0.01283        3.40956       -1.39061
H          2.86941        0.16520       -1.11822
H          1.19530       -0.11162       -1.67247
H          2.28220        0.79673       -2.74490
H          2.00343        1.23094        1.00894
H          0.61632        2.37993        0.90568
H          0.39666        0.75892        0.35129
Mg         2.01987        0.43061       -8.54844
C          2.34453        3.87434       -5.24660
C          1.64354        3.76297       -6.42805
C          1.63403        2.43309       -6.75285
C          2.34766        1.77732       -5.76017
N          2.81181        2.68092       -4.82359
C          2.52439        0.26112       -5.78632
N          3.13270       -0.18516       -7.06926
C          3.19283       -1.64655       -7.35235
H          1.18038        4.56329       -6.99562
H          2.49918        4.80286       -4.73248
H          1.15443        2.00522       -7.61689
H          3.12637       -0.08127       -4.93738
H          1.50204       -0.16502       -5.70385
C          1.78576       -2.28574       -7.39307
C          3.82314       -1.81141       -8.75140
C          4.07070       -2.41035       -6.34073
H          1.13822       -1.76803       -8.13251
H          1.85439       -3.35725       -7.69066
H          1.29381       -2.26181       -6.40061
H          4.84465       -1.37529       -8.77285
H          3.89931       -2.88500       -9.03754
H          3.21065       -1.29616       -9.52184
H          5.10449       -2.00644       -6.32861
H          3.64532       -2.36623       -5.31835
H          4.13136       -3.48636       -6.62916
