110
speciation2160.ct
Na         5.76819        1.55360        6.31064
Mg         1.98008        1.69951        4.35127
C          4.69895        4.15256        7.63633
C          6.25564        3.11013        9.03712
O          5.20842        2.91477        8.10404
C          5.68358        5.03734        6.86767
C          6.83985        1.76987        9.45396
H          3.92098        3.89875        6.91588
H          4.20222        4.71579        8.45702
H          7.09486        3.70216        8.61756
H          5.85366        3.60402        9.95022
H          7.30958        1.27113        8.57990
H          7.61930        1.93510       10.22927
H          6.04952        1.11414        9.87283
H          6.16540        4.45938        6.05247
H          5.12248        5.88596        6.41974
H          6.45061        5.47456        7.53670
H          3.23930        4.10638        4.66680
C          4.47550        3.35345        3.07270
C          3.55169        3.12538        4.26087
C          3.97412        4.05332        1.82144
H          5.34955        3.93418        3.42968
H          4.76589        2.36636        2.76756
H          3.05551        3.56405        1.43876
H          3.76954        5.11692        2.06056
C          5.07096        3.95956        0.74081
H          4.17086        2.60119        5.01653
H          6.04184        4.35860        1.11279
H          5.23434        2.89699        0.44848
H          4.78201        4.52761       -0.16545
C          2.03597       -1.27987        3.36835
C          2.68609       -2.44115        3.05717
C          4.00335       -2.14948        3.07297
C          4.13079       -0.80891        3.40642
N          2.88462       -0.24035        3.63964
C          5.52117       -0.19873        3.28894
N          6.34003        0.16310        4.47859
C          7.66125        0.76647        4.03954
H          2.24345       -3.40103        2.82427
H          0.96736       -1.26292        3.39138
H          4.80029       -2.84303        2.83239
H          5.49682        0.55514        2.50671
H          6.10252       -0.99230        2.78277
C          7.50656        2.17309        3.42211
C          8.56580        0.94113        5.27041
C          8.42108       -0.11455        3.00664
H          7.04947        2.85594        4.16141
H          8.49652        2.59836        3.14638
H          6.93666        2.16413        2.47420
H          8.80185       -0.03194        5.74202
H          9.52554        1.42620        4.97204
H          8.08570        1.60809        6.01555
H          8.50472       -1.16010        3.36711
H          7.91929       -0.11083        2.01303
H          9.44347        0.27991        2.81834
Na         4.02534        0.64876        7.90417
Mg         6.92121       -1.54599        5.26383
C          0.29802        3.95558        3.31832
C         -0.86677        2.02169        2.83018
O          0.41208        2.52538        3.24249
C         -0.41010        4.45754        4.57230
C         -0.90296        0.52895        2.63187
H          1.30391        4.40732        3.25295
H         -0.23374        4.37993        2.42415
H         -1.67939        2.26951        3.54576
H         -1.12092        2.44126        1.82745
H         -0.88242        0.02277        3.60545
H         -1.87245        0.24621        2.16930
H         -0.07735        0.21708        1.96287
H          0.16947        4.13696        5.42273
H         -0.45126        5.56592        4.59055
H         -1.44559        4.07983        4.68384
H          7.15047       -4.13993        5.06873
C          7.53207       -3.91830        7.18369
C          7.66223       -3.42369        5.74502
C          8.21790       -2.97173        8.17330
H          6.45672       -4.01353        7.44648
H          8.00342       -4.92466        7.24448
H          9.28265       -2.82447        7.88836
H          7.70210       -1.98721        8.15443
C          8.17700       -3.54163        9.59129
H          8.73710       -3.38634        5.46569
H          7.12976       -3.73027        9.90940
H          8.74627       -4.49561        9.63676
H          8.64144       -2.82270       10.29872
C          3.07894        2.33160       10.38238
C          2.19199        3.31690       10.77491
C          1.44967        3.64224        9.67427
C          1.91555        2.86160        8.63892
N          2.90385        2.05218        9.07133
C          1.37664        2.87640        7.24059
N          1.58149        1.61174        6.49980
C          0.67372        0.51153        6.92907
H          2.10958        3.73449       11.77258
H          3.81964        1.84288       10.99890
H          0.65912        4.38227        9.62307
H          1.85684        3.70878        6.70423
H          0.31298        3.16887        7.28535
C         -0.82267        0.92430        6.90817
C          0.86246       -0.57580        5.93213
C          1.02704       -0.09768        8.30334
H         -1.07868        1.41058        5.94237
H         -1.47612        0.03566        7.04206
H         -1.06805        1.61331        7.74175
H          1.91830       -0.92461        5.94660
H          0.18699       -1.44406        6.08297
H          0.63312       -0.06794        4.99802
H          2.08630       -0.42947        8.32257
H          0.83590        0.60087        9.13648
H          0.39991       -0.99280        8.50265
