68
speciation12.ct
Na         6.56257        0.39092       -0.22971
Mg         2.49823        4.71933       -1.10431
C          6.48115       -2.58985       -1.02701
C          7.62187       -2.18333        0.99490
O          7.14831       -1.63400       -0.22372
C          5.20215       -3.16462       -0.40712
C          8.46154       -1.14944        1.72603
H          6.21088       -2.08987       -1.97989
H          7.17695       -3.41287       -1.30866
H          6.78491       -2.47130        1.66299
H          8.28354       -3.05620        0.79137
H          7.83858       -0.26351        1.97058
H          8.85021       -1.58713        2.67062
H          9.31860       -0.83469        1.09411
H          4.50545       -2.34781       -0.12780
H          4.70291       -3.82768       -1.14586
H          5.42656       -3.78702        0.48436
C          7.00781        3.56899       -0.16310
C          6.35654        4.78529       -0.11149
C          5.01216        4.50817       -0.06549
C          4.89820        3.12808       -0.10183
N          6.11727        2.54921       -0.14891
C          3.60287        2.37326       -0.10171
N          2.82609        2.80347       -1.26981
C          1.50954        2.19238       -1.51164
H          6.80751        5.77226       -0.11041
H          8.08089        3.44262       -0.21128
H          4.21197        5.23449       -0.02421
H          3.81763        1.28640       -0.14487
H          3.06679        2.61975        0.83833
C          0.57484        2.39698       -0.30518
C          0.89684        2.91320       -2.72695
C          1.65512        0.69965       -1.86357
H          0.47969        3.48233       -0.08067
H         -0.43695        1.99297       -0.52131
H          0.95804        1.88032        0.59755
H          1.54663        2.79251       -3.61760
H         -0.10696        2.50452       -2.97220
H          0.79280        4.00210       -2.52831
H          2.32029        0.58088       -2.74683
H          2.08120        0.11791       -1.02266
H          0.66532        0.26302       -2.11784
Na         4.13609        2.41189       -3.20565
C          8.92254       -0.13604       -7.18814
C          9.18091        1.21710       -7.20736
C          8.33384        1.81498       -6.28906
C          7.57951        0.86274       -5.73693
N          7.90937       -0.41138       -6.25546
C          6.50117        1.07942       -4.70797
N          5.44609        2.02030       -5.14149
C          4.57343        1.62925       -6.28571
H          9.91016        1.70894       -7.83765
H          9.41499       -0.88115       -7.79861
H          8.27632        2.87358       -6.07046
H          6.98694        1.51070       -3.80869
H          6.05730        0.11197       -4.39942
C          3.87158        0.27919       -6.03731
C          3.50304        2.72281       -6.42773
C          5.33631        1.57045       -7.63181
H          3.29316        0.30720       -5.09065
H          3.17303        0.04763       -6.87113
H          4.60477       -0.55274       -5.98867
H          3.97922        3.70857       -6.62086
H          2.81490        2.49765       -7.27251
H          2.90135        2.80150       -5.50181
H          5.88197        2.52042       -7.81790
H          6.04175        0.72365       -7.68517
H          4.62971        1.40613       -8.47373
