95
speciation1422.ct
Na         0.78515        1.64230       -0.39750
Mg         3.15094       -0.15399       -1.69498
C          1.15131        4.46979        0.60434
C          0.27155        4.25176       -1.61791
O          0.96827        3.65132       -0.53976
C          0.01161        4.37417        1.62705
C         -1.20458        4.50026       -1.35277
H          2.06948        4.12557        1.12393
H          1.36603        5.52085        0.31604
H          0.79714        5.15712       -1.99000
H          0.29196        3.53716       -2.46065
H         -1.33588        5.37422       -0.69057
H         -1.71379        4.74781       -2.30430
H         -1.66849        3.58489       -0.92190
H         -0.11396        3.33219        1.97552
H          0.25706        5.01938        2.49587
H         -0.96440        4.71906        1.25555
H          1.80862        2.09547       -2.50301
C          2.66598        1.60982       -4.42146
C          2.74181        1.68077       -2.87996
C          1.41546        0.86735       -4.89717
H          2.64666        2.63658       -4.84845
H          3.56189        1.11684       -4.83751
H          1.33105       -0.12419       -4.41647
H          0.51738        1.45162       -4.61099
C          1.44548        0.66645       -6.41130
H          3.53451        2.40981       -2.59223
H          1.48885        1.64460       -6.93487
H          2.33246        0.06003       -6.70014
H          0.53323        0.12298       -6.73168
C         -2.04547        0.32043       -0.27131
C         -2.53112       -0.96633       -0.08488
C         -1.42331       -1.78962        0.05455
C         -0.31637       -0.95991       -0.03868
N         -0.70902        0.30197       -0.22677
C          1.13553       -1.33538        0.06440
N          1.98647       -0.13142       -0.08448
C          2.77962        0.24049        1.09820
H         -3.56903       -1.26041       -0.06921
H         -2.64249        1.20488       -0.41881
H         -1.43241       -2.85526        0.21958
H          1.36788       -2.04345       -0.76676
H          1.28350       -1.87067        1.01659
C          3.75279       -0.86036        1.57640
C          3.63098        1.45062        0.69060
C          1.84998        0.63822        2.27031
H          4.45109       -1.13054        0.76854
H          4.37670       -0.49063        2.41968
H          3.23291       -1.76960        1.94021
H          2.99003        2.26333        0.31336
H          4.23320        1.83049        1.54379
H          4.32257        1.16693       -0.13212
H          1.12334        1.40552        1.94496
H          1.27910       -0.23716        2.64686
H          2.43554        1.04953        3.12128
Na         6.35852       -3.31109        1.48735
Mg         6.42672       -0.91341       -0.90218
H          8.30514        0.59276        0.09849
C          9.39206       -1.27545       -0.22513
C          8.12661       -0.50227        0.14803
C          9.85150       -0.98117       -1.65183
H         10.20508       -0.99707        0.47985
H          9.17972       -2.36164       -0.11724
H          9.05869       -1.25437       -2.34354
H         10.06807        0.10050       -1.77935
C         11.07547       -1.80565       -2.03046
H          7.86320       -0.76635        1.19408
H         11.93615       -1.53432       -1.38603
H         10.85636       -2.89032       -1.92100
H         11.33876       -1.60844       -3.09171
C          7.18381       -5.16400       -0.80768
C          6.93340       -5.56430       -2.09735
C          5.91073       -4.76146       -2.55028
C          5.60580       -3.83175       -1.54945
N          6.37700       -4.13310       -0.46627
C          4.47560       -2.76048       -1.55096
N          4.76849       -1.31448       -1.92665
C          5.20492       -1.16570       -3.37664
H          7.42555       -6.37665       -2.62648
H          7.89994       -5.62959       -0.14624
H          5.45280       -4.85971       -3.52620
H          4.07862       -2.78804       -0.52482
H          3.61987       -3.15875       -2.12815
C          4.06177       -1.60852       -4.30805
C          5.66472        0.28801       -3.59415
C          6.46010       -1.93019       -3.86719
H          3.12176       -1.14402       -4.00368
H          4.28592       -1.39293       -5.37470
H          3.91658       -2.71082       -4.24745
H          6.61200        0.49528       -3.05179
H          5.83890        0.49854       -4.67591
H          4.99123        1.01052       -3.18944
H          7.32490       -1.69439       -3.25744
H          6.37981       -2.99319       -3.97259
H          6.70230       -1.63842       -4.91749
