110
speciation2019.ct
Na        -4.73253        4.61590       -4.70112
Mg        -3.68490        0.55237       -0.72535
C         -5.69786        6.00751       -2.36382
C         -5.77744        7.68838       -4.04424
O         -5.94403        6.30582       -3.73302
C         -6.98587        5.75594       -1.58141
C         -7.11296        8.47723       -4.06719
H         -5.11720        5.06836       -2.34797
H         -5.06305        6.75947       -1.84322
H         -5.05455        8.22605       -3.40737
H         -5.36110        7.75678       -5.04338
H         -7.47142        8.75234       -3.05134
H         -6.96839        9.43857       -4.61901
H         -7.93125        7.93623       -4.59792
H         -7.62980        5.02282       -2.11249
H         -6.72317        5.33009       -0.58792
H         -7.55182        6.69625       -1.41952
H         -6.24586        1.21705       -0.83887
C         -5.90140        0.84634       -2.94027
C         -5.41603        1.34600       -1.58948
C         -6.27864       -0.62644       -2.86767
H         -6.79775        1.44448       -3.22477
H         -5.09786        1.00797       -3.69892
H         -5.37896       -1.21646       -2.61873
H         -7.05329       -0.79185       -2.08647
C         -6.81771       -1.11338       -4.20131
H         -5.21234        2.42515       -1.69494
H         -7.75337       -0.56943       -4.45311
H         -6.06331       -0.94004       -4.99462
H         -7.03701       -2.19935       -4.13792
C         -1.83719        3.33855       -5.07194
C         -0.61426        2.87262       -4.73553
C         -0.56636        2.82199       -3.37881
C         -1.84559        3.18348       -2.88308
N         -2.61386        3.58632       -3.97803
C         -2.29676        3.29604       -1.35984
N         -2.53955        2.16944       -0.29721
C         -3.13470        2.76550        0.94497
H          0.22785        2.61726       -5.39506
H         -2.12443        3.51146       -6.10131
H          0.37328        2.52268       -2.96901
H         -1.57617        4.02242       -0.93815
H         -3.25026        3.81792       -1.49677
C         -4.47412        3.50421        0.77988
C         -3.46720        1.61473        1.84472
C         -2.10954        3.67526        1.67436
H         -5.26626        2.81516        0.45506
H         -4.81357        3.86710        1.77433
H         -4.42433        4.38689        0.12616
H         -2.52490        1.22570        2.03583
H         -3.91207        1.90725        2.81885
H         -4.07800        0.83876        1.33875
H         -1.14394        3.14234        1.82917
H         -1.91065        4.61167        1.11998
H         -2.49398        3.96601        2.67727
Na         1.32898       -1.44900        0.17338
Mg        -1.52119        0.39365        0.79543
C         -6.26238        2.86585       -6.97590
C         -6.13640        5.08256       -7.68673
O         -5.77337        4.16532       -6.65178
C         -5.47568        2.21484       -8.12482
C         -6.13748        6.50458       -7.19061
H         -6.19582        2.22128       -6.07959
H         -7.34986        2.88781       -7.23690
H         -5.41597        5.02180       -8.52889
H         -7.17525        4.91551       -8.06201
H         -5.10840        6.75546       -6.87320
H         -6.43274        7.19553       -8.00990
H         -6.87554        6.60348       -6.36869
H         -4.40340        2.13476       -7.85541
H         -5.87714        1.20021       -8.33283
H         -5.56934        2.79836       -9.06729
H         -0.39644       -0.51268        3.52920
C         -2.36638       -1.04738        4.26092
C         -1.43556       -0.14878        3.37325
C         -3.91435       -0.88201        4.14208
H         -2.15022       -2.07015        3.90338
H         -2.06563       -1.01794        5.33766
H         -4.17162       -0.56117        3.12306
H         -4.35160       -1.89516        4.26496
C         -4.68559       -0.05201        5.19444
H         -1.43703        0.86231        3.84721
H         -4.64782       -0.53986        6.19629
H         -4.36060        1.00215        5.28427
H         -5.76559       -0.04908        4.90720
C         -4.74937       -2.18379       -0.31364
C         -4.51381       -3.54382       -0.37999
C         -3.18399       -3.69505       -0.65363
C         -2.64956       -2.42598       -0.72106
N         -3.61762       -1.48140       -0.56017
C         -1.18897       -2.23809       -0.99381
N         -0.62967       -0.95830       -0.52114
C         -0.33027        0.00144       -1.58636
H         -5.23091       -4.34585       -0.25742
H         -5.71827       -1.74469       -0.12984
H         -2.65216       -4.63416       -0.79265
H         -0.63436       -3.04023       -0.46923
H         -1.00355       -2.47326       -2.06254
C         -1.61586        0.18334       -2.48588
C          0.26987        1.21984       -0.76359
C          0.78402       -0.48160       -2.55302
H         -2.44543        0.70842       -2.05169
H         -1.42251        0.63269       -3.46280
H         -2.06500       -0.76324       -2.83289
H          1.33010        1.01950       -0.50359
H          0.21412        2.24920       -1.08091
H         -0.15789        1.37878        0.22665
H          1.76787       -0.55185       -2.05067
H          0.57699       -1.45996       -3.01922
H          0.89357        0.24037       -3.39205
