68
speciation8.ct
Na         7.38366        2.16682       -0.07292
Mg         3.99594        2.40113       -2.73465
C          8.98317        4.91274        0.32632
C          9.90014        3.60947       -1.35118
O          9.21395        3.59178       -0.11675
C          8.22554        4.87627        1.64574
C         10.14381        2.18565       -1.82716
H          9.95668        5.41644        0.52874
H          8.39118        5.49869       -0.41184
H          9.31965        4.15263       -2.13126
H         10.90094        4.08197       -1.21926
H          9.17704        1.67558       -2.01986
H         10.73364        2.20531       -2.76875
H         10.71370        1.61782       -1.06124
H          8.78093        4.26399        2.38905
H          8.11862        5.90769        2.04390
H          7.21414        4.44053        1.49721
C          5.57117       -0.63388       -0.05989
C          4.29828       -1.16887       -0.03081
C          3.42580       -0.10400        0.01253
C          4.21107        1.03058        0.00791
N          5.51392        0.71115       -0.02814
C          3.72984        2.42944        0.06364
N          2.89599        2.72993       -1.10920
C          2.40489        4.13561       -1.13868
H          4.03772       -2.21865       -0.03769
H          6.49292       -1.19813       -0.09686
H          2.34459       -0.14958        0.04922
H          3.15577        2.53413        1.00402
H          4.62588        3.07962        0.09083
C          3.57461        5.14826       -1.20833
C          1.54805        4.30178       -2.40071
C          1.52404        4.46410        0.09199
H          4.23837        4.92041       -2.06676
H          3.18920        6.18422       -1.32309
H          4.18402        5.14957       -0.28155
H          0.68620        3.60135       -2.37716
H          1.15284        5.33970       -2.47093
H          2.15087        4.09378       -3.30998
H          0.67330        3.75441        0.16781
H          2.10132        4.43070        1.03911
H          1.11834        5.49626        0.01598
Na         7.83566        4.83044       -6.93455
C          5.30679        0.87222       -4.92605
C          6.07708        1.01245       -6.06358
C          6.33492        2.35841       -6.19953
C          5.72080        2.98757       -5.13240
N          5.09590        2.07233       -4.36011
C          5.71869        4.46112       -4.81989
N          5.95097        5.27691       -6.02572
C          5.96737        6.74707       -5.82973
H          6.40384        0.22037       -6.72303
H          4.91829       -0.06031       -4.53745
H          6.91624        2.80796       -6.99088
H          4.72473        4.69877       -4.39719
H          6.49753        4.63814       -4.05135
C          7.15279        7.16973       -4.93783
C          6.14880        7.38845       -7.21718
C          4.64519        7.27571       -5.22771
H          8.10893        6.79323       -5.35994
H          7.21291        8.27753       -4.86984
H          7.04361        6.78445       -3.90381
H          5.30747        7.10889       -7.88782
H          6.18142        8.49762       -7.14300
H          7.09434        7.04578       -7.68864
H          3.78243        6.99971       -5.87079
H          4.47035        6.88764       -4.20384
H          4.67667        8.38520       -5.14844
