110
speciation2589.ct
Na         3.52142        4.43870        3.21077
Mg         1.92965        4.62986       -1.26951
C          3.73865        6.43514       -2.11233
C          1.50943        7.12691       -2.58255
O          2.41881        6.04013       -2.46781
C          3.86255        7.31495       -0.85886
C          1.80538        8.02675       -3.78841
H          4.28742        5.49967       -1.90722
H          4.26485        6.89313       -2.97504
H          0.49072        6.70884       -2.73471
H          1.46372        7.73364       -1.65920
H          1.72088        7.45092       -4.73442
H          1.07523        8.86439       -3.81465
H          2.81793        8.47471       -3.72402
H          3.35342        6.84015       -0.00240
H          4.93172        7.43857       -0.59356
H          3.45071        8.33177       -1.02840
H          0.55507        4.66671        1.10327
C         -0.52037        6.31018        0.20959
C          0.77048        5.49211        0.39627
C         -1.66771        5.46529       -0.34856
H         -0.83031        6.70996        1.20033
H         -0.33803        7.17801       -0.45416
H         -1.38556        5.06186       -1.34436
H         -1.87101        4.61686        0.34176
C         -2.94316        6.29926       -0.48292
H          1.49099        6.15505        0.91410
H         -3.25731        6.69506        0.50802
H         -2.77833        7.15288       -1.17482
H         -3.76525        5.67032       -0.88501
C          5.88106        4.93906        1.37624
C          6.51385        4.66718        0.18539
C          5.69990        3.78809       -0.49967
C          4.60956        3.54663        0.30670
N          4.72004        4.26671        1.44862
C          3.50877        2.55329        0.03399
N          2.76104        2.72656       -1.24475
C          1.69102        1.70929       -1.43239
H          7.47241        5.05751       -0.13394
H          6.25697        5.58584        2.16130
H          5.88165        3.35402       -1.46545
H          4.00852        1.56476        0.03974
H          2.82585        2.62122        0.90101
C          0.62079        1.78016       -0.32184
C          1.03339        1.99535       -2.79097
C          2.26146        0.27144       -1.47538
H          0.21502        2.80444       -0.23540
H         -0.21592        1.08274       -0.53730
H          1.03237        1.46681        0.66130
H          1.77415        1.87906       -3.60985
H          0.20017        1.28513       -2.98545
H          0.63655        3.03149       -2.82421
H          3.08052        0.21076       -2.21196
H          2.66177       -0.05871       -0.49543
H          1.46916       -0.45732       -1.75558
Na         4.07104        2.33497       -3.18058
Mg         6.90550        0.61072       -4.78698
C          6.86317       -0.61128       -7.04796
C          8.46600       -1.64898       -5.65284
O          7.86594       -0.42368       -6.06867
C          5.79712       -1.64349       -6.71415
C          9.26497       -2.30208       -6.78371
H          6.32680        0.33688       -7.09136
H          7.28816       -0.74077       -8.06436
H          9.19637       -1.44276       -4.84964
H          7.72488       -2.35484       -5.22066
H         10.07439       -1.61900       -7.11399
H          9.71401       -3.25275       -6.42522
H          8.62083       -2.54238       -7.65095
H          5.51877       -1.51308       -5.65548
H          4.92080       -1.50838       -7.36588
H          6.18748       -2.67849       -6.83932
H          8.87438       -0.24443       -3.10160
C          7.94388        1.15741       -1.78889
C          8.39261        0.74991       -3.18932
C          6.78522        0.30623       -1.25108
H          8.80701        1.10228       -1.08629
H          7.63597        2.21292       -1.83006
H          6.49316        0.69789       -0.25412
H          5.91131        0.39771       -1.93225
C          7.15729       -1.16949       -1.09140
H          9.17982        1.44988       -3.51760
H          7.41298       -1.62383       -2.06967
H          8.01915       -1.27643       -0.39819
H          6.29252       -1.72700       -0.67336
C          2.74017       -1.62751       -4.53959
C          1.89514       -1.33817       -5.57909
C          2.33743       -0.15763       -6.14350
C          3.42720        0.25497       -5.47632
N          3.72554       -0.62347       -4.42097
C          4.16838        1.50692       -5.89232
N          5.38103        1.94338       -5.11642
C          5.96228        3.18607       -5.76773
H          1.04656       -1.93282       -5.90936
H          2.65732       -2.50138       -3.90346
H          1.89268        0.33282       -7.00273
H          3.38899        2.28596       -5.81082
H          4.40066        1.34055       -6.95263
C          4.93602        4.36193       -5.84911
C          7.16106        3.70280       -4.96073
C          6.48797        2.93985       -7.21728
H          4.58613        4.65421       -4.83816
H          5.40575        5.25247       -6.32290
H          4.06195        4.14097       -6.49380
H          7.95874        2.92760       -4.93101
H          7.59436        4.59953       -5.44819
H          6.86516        3.97202       -3.92755
H          7.33711        2.22607       -7.22505
H          5.71694        2.61177       -7.93268
H          6.88622        3.88258       -7.65848
