110
speciation2298.ct
Na         0.49127        1.92227       -0.52926
Mg         6.96798       -5.10720       -5.20435
C          1.22446        4.65432        0.90434
C         -0.45333        4.79448       -0.78433
O          0.56882        4.02017       -0.18901
C          0.33526        5.08607        2.08196
C         -1.34921        3.84558       -1.54836
H          1.93809        3.92264        1.32738
H          1.83618        5.50665        0.53802
H         -1.12183        5.30081       -0.05956
H         -0.00828        5.53127       -1.48685
H         -1.82718        3.16350       -0.82824
H         -2.13501        4.38168       -2.11862
H         -0.73665        3.24160       -2.23114
H         -0.25616        4.22984        2.46631
H          0.98684        5.46168        2.90088
H         -0.33807        5.92635        1.81900
H          8.38183       -6.56699       -7.00934
C          7.73947       -8.43317       -6.17975
C          8.09078       -6.92963       -6.00172
C          7.45345       -9.18150       -4.86994
H          6.87705       -8.55036       -6.86938
H          8.61073       -8.94632       -6.65302
H          7.26687      -10.25797       -5.09559
H          8.33616       -9.13004       -4.19475
C          6.22739       -8.61903       -4.17122
H          9.00186       -6.89944       -5.36600
H          6.39614       -7.55584       -3.92274
H          5.34370       -8.70005       -4.83798
H          6.03343       -9.18294       -3.23548
C         -2.32610        0.55845       -0.06545
C         -2.82571       -0.72296       -0.02669
C         -1.76178       -1.57228       -0.25612
C         -0.65468       -0.75916       -0.42143
N         -1.00458        0.52520       -0.29876
C          0.76031       -1.17634       -0.69830
N          1.67087       -0.00063       -0.67824
C          2.34073        0.26077        0.61676
H         -3.85724       -0.99260        0.15136
H         -2.89802        1.46237        0.07315
H         -1.79790       -2.65175       -0.28876
H          0.78521       -1.66209       -1.69642
H          1.04935       -1.95426        0.03109
C          3.23374       -0.90319        1.06376
C          3.24567        1.47189        0.35852
C          1.34560        0.58219        1.75310
H          3.89272       -1.12963        0.22776
H          3.84834       -0.61486        1.94569
H          2.67691       -1.81437        1.35414
H          2.66429        2.33639       -0.00259
H          3.83493        1.75477        1.25284
H          3.94517        1.24146       -0.45712
H          0.71453        1.46263        1.53067
H          0.68425       -0.28602        1.95837
H          1.89610        0.81647        2.68733
Na         3.44948       -0.18100       -2.12621
Mg         5.18747       -2.34758       -0.22298
C          3.86430        2.20388       -4.06973
C          1.63546        2.02522       -3.26149
O          2.83812        1.33110       -3.58235
C          4.17544        3.43732       -3.20384
C          0.92063        2.58559       -4.50325
H          4.78938        1.60841       -4.13381
H          3.65131        2.51173       -5.11486
H          0.93580        1.30061       -2.80083
H          1.79839        2.81407       -2.49825
H          0.65742        1.76035       -5.19424
H         -0.01767        3.10238       -4.22679
H          1.54020        3.33701       -5.03119
H          4.36605        3.14143       -2.15216
H          5.07811        3.94857       -3.60075
H          3.35172        4.18150       -3.23923
H          4.54744       -4.34681       -6.25567
C          5.61057       -3.46934       -7.91588
C          5.52467       -3.85094       -6.42483
C          6.86207       -2.64193       -8.23525
H          5.57848       -4.38240       -8.54292
H          4.72351       -2.84268       -8.17625
H          6.87943       -2.38532       -9.32097
H          6.83191       -1.68475       -7.66843
C          8.12583       -3.40971       -7.87202
H          5.50870       -2.87444       -5.90705
H          9.01779       -2.76833       -8.01683
H          8.20743       -4.31684       -8.50638
H          8.09379       -3.71280       -6.80507
C          7.61404       -5.71292       -2.34330
C          7.34803       -5.44008       -1.02156
C          6.41139       -4.44501       -0.99552
C          6.14334       -4.12021       -2.31500
N          6.87185       -4.91522       -3.14874
C          5.17226       -3.03294       -2.78252
N          5.25591       -1.73771       -2.04745
C          6.53366       -0.96728       -2.15151
H          7.80562       -5.92703       -0.15120
H          8.31137       -6.46981       -2.68858
H          6.00791       -4.03827       -0.08721
H          4.15543       -3.44043       -2.61514
H          5.27566       -2.88243       -3.85488
C          6.91704       -0.66243       -3.60930
C          6.30833        0.36622       -1.42629
C          7.71719       -1.65834       -1.44650
H          6.10087       -0.15180       -4.14583
H          7.82317       -0.01153       -3.64292
H          7.16463       -1.59575       -4.16205
H          6.01402        0.18234       -0.37393
H          7.23192        0.98620       -1.42257
H          5.52596        0.94725       -1.94288
H          7.45718       -1.90977       -0.39654
H          8.06649       -2.56500       -1.98312
H          8.60334       -0.98556       -1.42035
