81
speciation386.ct
Na         1.39477        2.00913        0.21362
Mg         8.13360       -2.53374       -4.22837
C          1.32055        4.85315        0.94549
C          2.83276        4.30729       -0.83710
O          2.18010        3.89256        0.34776
C          0.30354        5.51732        0.00956
C          3.95055        5.30519       -0.54177
H          0.74208        4.31667        1.72710
H          1.91774        5.61809        1.48597
H          3.31193        3.40793       -1.27920
H          2.13197        4.68053       -1.61010
H          4.67139        4.86303        0.17872
H          4.48724        5.55177       -1.48170
H          3.53903        6.24400       -0.11759
H         -0.29619        4.74745       -0.51874
H         -0.37821        6.15702        0.60900
H          0.80496        6.18178       -0.72430
H          9.44245       -1.90718       -6.38110
C          8.48295       -3.76513       -6.96919
C          9.19043       -2.89325       -5.93584
C          7.18399       -3.11275       -7.44933
H          9.16765       -3.90582       -7.83444
H          8.26206       -4.75752       -6.52094
H          6.48545       -3.00475       -6.59390
H          7.40548       -2.10817       -7.87291
C          6.50333       -3.95324       -8.52483
H         10.13179       -3.38914       -5.61835
H          7.17254       -4.07398       -9.40347
H          6.24085       -4.95442       -8.12258
H          5.57234       -3.44601       -8.85586
C         -1.68143        1.13663        0.02950
C         -2.34040       -0.07008       -0.11975
C         -1.36349       -1.04698       -0.21081
C         -0.15888       -0.38739       -0.11653
N         -0.35256        0.93004        0.02669
C          1.20249       -1.00809       -0.14773
N          2.24500        0.03300       -0.00400
C          3.14439       -0.10269        1.16482
H         -3.40989       -0.22536       -0.15244
H         -2.14805        2.10519        0.13303
H         -1.52020       -2.11133       -0.33141
H          1.34366       -1.52448       -1.11964
H          1.23867       -1.77313        0.65090
C          3.93368       -1.42229        1.11475
C          4.16058        1.05067        1.10101
C          2.35827        0.00305        2.49000
H          4.49975       -1.45465        0.16850
H          4.65232       -1.48311        1.96073
H          3.28405       -2.31777        1.17139
H          3.64852        2.02990        1.14950
H          4.87722        0.99790        1.94898
H          4.73777        1.00739        0.15141
H          1.78579        0.95416        2.52668
H          1.64506       -0.83595        2.61830
H          3.05401       -0.02194        3.35659
Mg         3.38218        0.08335       -1.63630
C          4.47181        1.05514       -4.24873
C          5.33126        0.70605       -5.27136
C          5.92959       -0.47723       -4.89737
C          5.39957       -0.80263       -3.66746
N          4.51935        0.13370       -3.26860
C          5.67267       -2.04242       -2.89154
N          7.10266       -2.18303       -2.56275
C          7.38648       -3.36902       -1.70262
H          5.48665        1.24204       -6.19766
H          3.82198        1.91988       -4.23568
H          6.64528       -1.04568       -5.46941
H          5.05969       -1.98616       -1.97442
H          5.32678       -2.88910       -3.51581
C          6.86090       -4.68744       -2.32943
C          8.90827       -3.48852       -1.55386
C          6.77491       -3.21386       -0.29284
H          7.27478       -4.83140       -3.34915
H          7.14792       -5.55963       -1.70191
H          5.75190       -4.70751       -2.38573
H          9.32866       -2.57023       -1.09347
H          9.16917       -4.35683       -0.90715
H          9.38394       -3.64338       -2.54513
H          7.09796       -2.26331        0.17980
H          5.67112       -3.25926       -0.32593
H          7.08218       -4.05815        0.36331
