95
speciation1514.ct
Na         3.08085       -0.77164        1.59353
Mg         1.89891        4.63931       -0.94530
C          3.26431        7.16725       -0.44632
C          4.17190        5.72965       -2.12561
O          3.42503        5.83030       -0.91818
C          2.77879        8.21615       -1.46046
C          5.65030        6.09697       -1.94381
H          2.53161        7.13924        0.38338
H          4.21432        7.51251        0.01569
H          4.14919        4.66888       -2.44863
H          3.71221        6.30237       -2.95689
H          6.11084        5.45685       -1.16262
H          6.19380        5.93829       -2.90020
H          5.77204        7.16386       -1.66267
H          1.80319        7.93398       -1.89088
H          2.65271        9.18960       -0.93959
H          3.51382        8.38356       -2.27374
H          0.43107        6.33574       -2.42952
C         -0.71387        4.75609       -3.30064
C          0.60936        5.27756       -2.67846
C         -1.91787        4.71253       -2.34164
H         -0.97780        5.39266       -4.17161
H         -0.57086        3.74309       -3.72449
H         -2.77587        4.27403       -2.89729
H         -1.71414        4.05811       -1.46568
C         -2.33761        6.09621       -1.85692
H          1.37060        5.22799       -3.48582
H         -1.55536        6.53879       -1.20748
H         -2.52221        6.76283       -2.72563
H         -3.27705        6.01293       -1.27007
C          5.68808       -0.53649        0.08568
C          6.54233        0.22819       -0.67233
C          5.93649        1.46975       -0.81921
C          4.71632        1.39920       -0.16859
N          4.59604        0.17722        0.41122
C          3.72237        2.55630       -0.05355
N          2.75198        2.71756       -1.17616
C          1.71552        1.62113       -1.22975
H          7.50632       -0.08537       -1.06876
H          5.84924       -1.56664        0.38493
H          6.34030        2.31347       -1.34485
H          3.22615        2.54412        0.93316
H          4.34588        3.47308       -0.01643
C          0.94682        1.42624        0.09586
C          0.72678        2.02395       -2.29429
C          2.25412        0.23309       -1.63755
H          0.50025        2.36649        0.43079
H          0.12565        0.68747       -0.03404
H          1.60476        1.03977        0.89816
H          1.24228        2.25512       -3.25060
H         -0.04983        1.24896       -2.47809
H          0.22616        2.90697       -1.89979
H          2.92472        0.31374       -2.48383
H          2.76126       -0.30473       -0.83659
H          1.42210       -0.45609       -1.90353
Na         8.98260       -0.26440       -4.35382
Mg         3.85193        2.38876       -2.80161
H          0.36242        6.00606        0.90514
C          1.16248        4.65792        2.40307
C          0.66540        4.93865        0.95061
C          0.11350        4.92517        3.51312
H          1.49349        3.60129        2.48040
H          2.03742        5.31175        2.60022
H          0.60262        4.74298        4.49733
H         -0.22233        5.98508        3.49771
C         -1.11660        4.01259        3.45483
H         -0.24253        4.33798        0.77391
H         -1.71917        4.20810        2.54490
H         -0.81273        2.94445        3.47809
H         -1.76832        4.20271        4.33827
C          8.91421        1.80737       -6.63918
C          8.27938        2.91027       -7.15296
C          7.25689        3.22767       -6.27426
C          7.31825        2.29015       -5.26524
N          8.33285        1.42507       -5.48934
C          6.38832        2.20379       -4.08136
N          4.95189        2.05996       -4.42706
C          4.56494        0.78079       -5.11663
H          8.52871        3.43023       -8.06909
H          9.75750        1.29677       -7.08864
H          6.54924        4.03826       -6.37531
H          6.50442        3.15362       -3.51481
H          6.71210        1.37691       -3.42528
C          4.98885       -0.45579       -4.28599
C          3.03827        0.78959       -5.33695
C          5.15852        0.63355       -6.54205
H          4.75732       -0.33735       -3.21513
H          4.50008       -1.37973       -4.66259
H          6.08613       -0.61519       -4.34531
H          2.74018        1.66369       -5.95435
H          2.71187       -0.13375       -5.86735
H          2.46393        0.83775       -4.41307
H          4.90839        1.51503       -7.16974
H          6.24689        0.47147       -6.54953
H          4.75027       -0.27437       -7.03957
