81
speciation741.ct
Na         5.76849       -3.25909       -2.95091
Mg         4.42575        2.51037       -1.00800
C          3.83764        2.44302        2.19077
C          5.80501        1.27404        1.56793
O          4.68293        2.03109        1.09155
C          4.48590        3.29502        3.32555
C          5.47407       -0.03483        2.34227
H          3.01911        3.05372        1.80918
H          3.33215        1.56865        2.65271
H          6.43334        0.98848        0.70435
H          6.44995        1.91320        2.20660
H          5.00187       -0.79683        1.68862
H          4.83290        0.11678        3.23752
H          6.41839       -0.46965        2.74017
H          4.89147        4.25639        2.94902
H          3.71153        3.54495        4.08896
H          5.27842        2.75805        3.89024
H          7.70140       -2.04996       -7.75441
C          9.72524       -1.40196       -7.99833
C          8.32337       -1.22521       -7.33907
C         10.70617       -0.22845       -7.82041
H         10.19236       -2.34487       -7.64553
H          9.58517       -1.50081       -9.10120
H         11.63967       -0.44480       -8.39252
H         10.27061        0.70320       -8.24441
C         11.08824       -0.00859       -6.36772
H          7.89313       -0.28626       -7.75417
H         10.18246        0.21859       -5.77131
H         11.58665       -0.91788       -5.97090
H         11.79505        0.84617       -6.29576
C          3.15109        0.86552       -3.55184
C          3.25009       -0.25019       -4.38248
C          4.42586       -0.86706       -4.06816
C          5.00820       -0.09604       -3.07119
N          4.20817        0.95588       -2.69050
C          6.33921       -0.37020       -2.46942
N          7.07487       -1.53416       -3.03379
C          8.18582       -1.98711       -2.13246
H          2.54627       -0.59285       -5.13839
H          2.31847        1.55066       -3.59110
H          4.80701       -1.77994       -4.52545
H          6.11198       -0.50153       -1.40063
H          6.93662        0.54241       -2.64738
C          7.62173       -2.58852       -0.80195
C          8.98961       -3.03421       -2.93949
C          9.14864       -0.84569       -1.67185
H          6.87341       -3.39234       -0.93933
H          8.44379       -2.99584       -0.17336
H          7.16174       -1.80384       -0.16590
H          9.26871       -2.59286       -3.92637
H          9.93510       -3.34148       -2.44527
H          8.38710       -3.94061       -3.16455
H          9.94782       -0.60698       -2.39848
H          8.61129        0.06963       -1.35733
H          9.67803       -1.14845       -0.73899
Mg         7.65705       -1.33738       -5.09186
C          0.81322        3.80614        0.65085
C          0.71528        4.97818        1.36832
C          1.76251        5.78979        0.97531
C          2.47908        5.12598        0.06124
N          1.92006        3.86253       -0.21236
C          3.72963        5.64649       -0.56668
N          4.35751        4.66543       -1.49191
C          5.59278        5.21837       -2.13390
H         -0.03602        5.19957        2.11496
H          0.15552        2.95589        0.74561
H          1.97783        6.77924        1.36573
H          4.42113        5.90011        0.26254
H          3.45026        6.58204       -1.09964
C          6.68009        5.51400       -1.07538
C          6.10683        4.15690       -3.10583
C          5.35150        6.52610       -2.95730
H          6.78730        4.65436       -0.38398
H          7.66027        5.72195       -1.55653
H          6.42970        6.42081       -0.48091
H          5.34609        3.96890       -3.89442
H          7.04317        4.49840       -3.60055
H          6.30899        3.21189       -2.56368
H          4.59261        6.38004       -3.75462
H          5.04035        7.38895       -2.33077
H          6.29661        6.85364       -3.45017
