96
speciation1492.ct
Na         0.92228        0.02684       -0.05692
Mg        -2.56608        1.83439       -1.16524
C         -5.82725        2.36932       -1.83927
C         -5.66257        1.59794        0.32899
O         -4.92789        1.73458       -0.91733
C         -6.38006        3.73781       -1.40137
C         -6.79379        0.60971        0.33654
H         -5.35338        2.45534       -2.80842
H         -6.64427        1.67069       -2.05994
H         -5.14668        1.03072        1.06920
H         -5.78636        2.56052        0.85905
H         -6.44021       -0.34906       -0.10585
H         -7.08657        0.39330        1.39800
H         -7.66218        0.99143       -0.20134
H         -5.57038        4.48413       -1.27887
H         -7.10712        4.08722       -2.15791
H         -6.96753        3.68188       -0.45838
H         -1.68270        3.61862        0.80366
C         -1.89529        5.24880       -0.44436
C         -1.56080        3.75911       -0.27542
C         -1.12195        6.07060        0.62501
H         -1.66057        5.61325       -1.46947
H         -2.98198        5.37245       -0.25721
H         -1.35956        5.67693        1.64038
H         -0.02393        5.98036        0.47348
C         -1.51213        7.53900        0.62293
H         -0.46947        3.66996       -0.45759
H         -1.24099        8.00375       -0.34572
H         -2.60405        7.63794        0.80071
H         -0.97425        8.06451        1.44329
C         -0.09384        1.77795        5.70220
C         -1.17097        2.54719        5.32218
C         -1.52387        2.24639        3.99570
C         -0.65584        1.31599        3.51556
N          0.24616        0.97414        4.69896
C         -0.62681        0.41500        1.71579
N         -1.44772        0.02684       -0.05692
C         -2.48603       -0.59564        0.63203
H         -1.63753        3.27179        5.98226
H          0.43454        1.79794        6.65610
H         -2.36318        2.71864        3.48336
H          0.18625       -0.30902        1.88866
H         -1.28953       -0.10603        2.46844
C         -2.97503        0.88313        1.19848
C         -3.75866       -1.19817        0.09686
C         -1.60493       -1.94338        0.97617
H         -3.30127        1.58161        0.44458
H         -3.40869        1.00290        2.19689
H         -2.28111        1.74497        1.21436
H         -3.68355       -2.25287       -0.25256
H         -4.39220       -1.27346        1.02261
H         -4.23151       -0.61213       -0.68184
H         -1.67196       -2.70007        0.15558
H         -0.49394       -1.87775        0.80238
H         -1.70707       -2.39959        1.97083
Mg         1.31960       -0.39213        3.72883
C         -0.62315        1.39118       -3.33783
C         -2.14029        2.95035       -4.12385
O         -1.94428        1.90543       -3.15015
C          0.52128        2.41899       -3.19663
C         -3.53009        3.47309       -4.14633
H         -0.47328        0.58496       -2.60528
H         -0.52237        0.89948       -4.33895
H         -1.49349        3.83147       -3.93619
H         -1.94258        2.56783       -5.16546
H         -3.75375        3.91514       -3.15649
H         -3.62586        4.29843       -4.90991
H         -4.20276        2.66989       -4.47064
H          0.44921        2.94420       -2.23263
H          1.50330        1.91253       -3.24513
H          0.53625        3.16465       -4.02158
C          2.40804       -3.05696        3.10550
C          3.50211       -3.67532        2.54664
C          4.18191       -2.70361        1.84602
C          3.43200       -1.54377        1.92585
N          2.39303       -1.75840        2.75871
C          3.80671       -0.20269        1.32205
N          3.29228        0.02684       -0.05692
C          3.68575       -0.91439       -1.16092
H          3.80469       -4.70468        2.68154
H          1.71148       -3.51238        3.79602
H          5.12032       -2.83411        1.32225
H          4.90149       -0.03236        1.38311
H          3.34817        0.58222        1.96145
C          3.14198       -2.37414       -1.03794
C          3.02814       -0.41045       -2.45368
C          5.21339       -0.91178       -1.34427
H          2.04780       -2.39270       -0.84793
H          3.34151       -2.93916       -1.97368
H          3.63143       -3.03490       -0.33942
H          3.35262        0.61704       -2.69497
H          3.29360       -1.07159       -3.31158
H          1.91992       -0.43581       -2.34894
H          5.56193        0.11851       -1.57115
H          5.73085       -1.25971       -0.42756
H          5.51476       -1.57960       -2.17937
