110
speciation2477.ct
Na         1.21755       -2.84643       -0.57776
Mg         2.94157       -0.37123       -1.79048
C          2.21600       -4.44101       -2.64441
C          0.11314       -5.39719       -2.13916
O          1.16119       -4.53648       -1.71965
C          1.82905       -3.99534       -4.06270
C         -0.96024       -5.56012       -1.06307
H          2.90727       -3.67433       -2.23073
H          2.78084       -5.39780       -2.69109
H         -0.39222       -5.01318       -3.05037
H          0.53246       -6.41528       -2.31435
H         -1.48085       -4.60030       -0.87373
H         -1.71464       -6.29803       -1.41693
H         -0.52819       -5.94063       -0.11399
H          1.20565       -3.09606       -4.10845
H          2.75353       -3.76991       -4.62811
H          1.26951       -4.79668       -4.58290
H          1.90896        1.78399       -3.25447
C          3.68955        1.69301       -4.36572
C          2.96420        1.55854       -3.02213
C          3.17219        0.68275       -5.40268
H          3.52352        2.71985       -4.75947
H          4.77933        1.59472       -4.21573
H          3.30586       -0.35303       -5.03735
H          2.08958        0.84998       -5.58689
C          3.92179        0.82817       -6.72001
H          3.31715        2.38372       -2.37099
H          3.77994        1.85229       -7.12813
H          4.99871        0.63060       -6.54949
H          3.55258        0.09482       -7.46645
C          0.46787       -3.50369        2.30514
C          0.23787       -2.79922        3.46249
C          0.41630       -1.45549        3.16364
C          0.77543       -1.41333        1.82459
N          0.77114       -2.64761        1.32105
C          1.10599       -0.21623        0.96497
N          1.29780       -0.64452       -0.47004
C          0.15476       -0.33254       -1.34634
H         -0.03389       -3.23039        4.42419
H          0.42209       -4.57507        2.17175
H          0.32813       -0.62790        3.85091
H          2.02348        0.26264        1.35688
H          0.28603        0.51561        1.07737
C         -0.10871        1.18721       -1.44332
C          0.55679       -0.89733       -2.69799
C         -1.14256       -1.06586       -0.92887
H          0.83674        1.75513       -1.44135
H         -0.69964        1.42939       -2.35228
H         -0.68314        1.56309       -0.57303
H          0.72847       -1.96241       -2.51396
H         -0.22868       -0.77377       -3.46645
H          1.49276       -0.48204       -3.09411
H         -0.96251       -2.15339       -0.80429
H         -1.56082       -0.67180        0.01874
H         -1.91470       -0.94815       -1.72079
Na         8.09360        0.67932       -5.14215
Mg         4.82001       -3.17292       -1.21698
C          7.02628        2.89490       -6.57279
C          9.36090        3.05265       -6.91269
O          8.31389        2.72078       -5.98417
C          6.81479        2.13670       -7.89753
C          9.36301        4.53210       -7.40390
H          6.29080        2.51350       -5.84096
H          6.75878        3.96555       -6.67501
H         10.35220        2.87755       -6.44608
H          9.34377        2.36930       -7.78189
H          9.87579        5.20219       -6.68211
H          9.90591        4.60037       -8.37265
H          8.36419        4.96251       -7.61192
H          7.03136        1.05642       -7.75358
H          5.77186        2.26359       -8.24324
H          7.44317        2.53205       -8.72128
H          4.22071       -5.08009        0.40970
C          6.24088       -5.65778       -0.13863
C          4.87281       -5.07806       -0.48948
C          6.94590       -4.84662        0.94977
H          6.10840       -6.70286        0.21850
H          6.86378       -5.67529       -1.05757
H          7.05612       -3.80483        0.62106
H          6.34706       -4.84824        1.88589
C          8.33694       -5.40775        1.22896
H          4.41308       -5.73918       -1.24674
H          8.26216       -6.44371        1.62088
H          8.94284       -5.41260        0.29665
H          8.85337       -4.77357        1.97981
C          8.71442       -2.32364       -4.10386
C          8.28029       -3.48889       -3.49905
C          6.96199       -3.28825       -3.16793
C          6.64020       -2.00648       -3.55588
N          7.72290       -1.39630       -4.15821
C          5.28165       -1.35668       -3.33511
N          4.76849       -1.31448       -1.92665
C          5.67221       -0.59091       -0.94213
H          8.85944       -4.38429       -3.31256
H          9.71834       -2.16300       -4.47717
H          6.31277       -3.99932       -2.67010
H          4.55543       -1.93891       -3.93810
H          5.34897       -0.35081       -3.74840
C          5.77618        0.91264       -1.24743
C          5.07705       -0.79533        0.45975
C          7.14436       -1.09183       -0.84716
H          4.79395        1.38985       -1.18882
H          6.42863        1.42276       -0.50342
H          6.24237        1.08466       -2.24182
H          5.10854       -1.87256        0.73546
H          5.65774       -0.23363        1.22675
H          4.02899       -0.45130        0.49467
H          7.20833       -2.17301       -0.67764
H          7.76460       -0.81908       -1.71733
H          7.66953       -0.58974       -0.00132
