81
speciation752.ct
Na         2.09323        1.81114        0.69307
Mg         6.31532       -2.51646        3.49135
C          5.84921       -3.40205        6.23050
C          8.01593       -3.65513        5.30058
O          6.61687       -3.64098        5.04316
C          6.18759       -2.13618        7.03708
C          8.46552       -4.82089        6.19093
H          4.78890       -3.33618        5.96452
H          5.88271       -4.29101        6.89277
H          8.53748       -3.78509        4.33393
H          8.37071       -2.68510        5.70409
H          8.19760       -5.78959        5.72041
H          9.56713       -4.77726        6.32332
H          8.01630       -4.76627        7.20339
H          6.08851       -1.22601        6.42567
H          5.47522       -2.04770        7.88445
H          7.20415       -2.17600        7.47563
H          1.92546       -1.45688        2.88114
C          3.15064       -2.62631        4.07964
C          2.76476       -2.13550        2.70000
C          2.00733       -3.39486        4.79846
H          4.03260       -3.27774        3.97386
H          3.40413       -1.73491        4.69849
H          2.33523       -3.62140        5.83600
H          1.08958       -2.76921        4.86633
C          1.66839       -4.72752        4.12728
H          2.47174       -2.99548        2.06524
H          1.25050       -4.57650        3.11230
H          2.57786       -5.36224        4.06399
H          0.90712       -5.26999        4.73024
C         -0.61456       -0.42566        2.73755
C         -0.82332       -1.75423        2.43545
C         -0.09738       -2.03631        1.29226
C          0.53649       -0.92305        0.91208
N          0.23182        0.15394        1.77526
C          1.42308       -0.82121       -0.29330
N          2.70460       -0.11481       -0.04011
C          3.44462        0.17568       -1.30523
H         -1.43526       -2.44433        3.00064
H         -1.03292        0.09730        3.58701
H         -0.04736       -2.99342        0.78963
H          0.80233       -0.23102       -0.98995
H          1.60515       -1.82931       -0.71641
C          2.58145        0.79348       -2.43793
C          4.53439        1.19598       -0.99950
C          4.10674       -1.11034       -1.82920
H          2.07681        1.72172       -2.09005
H          3.21957        1.05169       -3.31032
H          1.82663        0.08165       -2.82852
H          5.22634        0.71181       -0.32165
H          5.11299        1.47014       -1.90954
H          4.11452        2.12873       -0.56035
H          4.67343       -1.58071       -1.01804
H          3.34925       -1.84893       -2.17132
H          4.79674       -0.89185       -2.67101
Mg         4.01194       -1.07115        1.33556
C          9.64433       -3.89516        1.54759
C         10.13559       -3.03149        0.59482
C          9.07977       -2.24389        0.17714
C          7.99063       -2.59628        0.86086
N          8.27635       -3.65298        1.75311
C          6.62089       -1.97512        0.69572
N          6.00601       -1.36296        1.89954
C          6.73161       -0.16055        2.47564
H         11.16064       -2.99559        0.24062
H         10.22837       -4.64210        2.07516
H          9.13291       -1.46140       -0.57417
H          5.96344       -2.80885        0.37185
H          6.66150       -1.23093       -0.12691
C          6.86846        1.05395        1.53408
C          5.94192        0.31214        3.70047
C          8.16344       -0.50233        2.96899
H          5.89652        1.56033        1.39773
H          7.51077        1.83510        1.99834
H          7.35648        0.78794        0.57277
H          5.88785       -0.49990        4.43878
H          6.43133        1.19563        4.17280
H          4.90817        0.59687        3.41563
H          8.16885       -1.38968        3.62721
H          8.87596       -0.64291        2.13967
H          8.59510        0.34682        3.54390
