81
speciation374.ct
Na         4.00165       -3.54444        1.54446
Mg         1.78742        4.47034       -2.55217
C          3.12240       -4.35123        4.52587
C          3.67000       -6.21662        3.25508
O          3.16246       -4.90103        3.22903
C          2.55228       -2.94240        4.44883
C          3.77387       -6.74720        1.83290
H          2.42623       -4.94518        5.16235
H          4.13338       -4.31274        4.98855
H          4.67887       -6.25687        3.72452
H          2.96138       -6.88004        3.80136
H          4.50209       -6.14288        1.25227
H          4.11726       -7.80347        1.85230
H          2.78203       -6.70246        1.33444
H          1.54980       -2.96206        3.96893
H          2.45010       -2.52081        5.47114
H          3.22647       -2.29151        3.85369
H          0.29171        6.55080       -3.10845
C         -1.07743        4.86955       -3.01926
C          0.25213        5.48780       -3.42924
C         -1.25158        4.95960       -1.50144
H         -1.90405        5.41523       -3.52432
H         -1.09489        3.80595       -3.34056
H         -0.42011        4.41903       -1.00666
H         -1.22660        6.02600       -1.18593
C         -2.57242        4.34694       -1.05013
H          0.37965        5.44253       -4.53116
H         -3.42505        4.87037       -1.53258
H         -2.60590        3.26856       -1.31291
H         -2.66947        4.44860        0.05185
C          2.82295       -0.78225       -3.97861
C          2.84588       -2.16198       -4.03543
C          3.14949       -2.59998       -2.76284
C          3.30112       -1.46689       -1.98721
N          3.09466       -0.36079       -2.73059
C          3.62169       -1.43343       -0.52775
N          4.85892       -2.15860       -0.17643
C          6.16086       -1.51447       -0.39489
H          2.66700       -2.77388       -4.90637
H          2.62104       -0.12046       -4.81137
H          3.24560       -3.63022       -2.44190
H          2.78345       -1.96896       -0.02456
H          3.60462       -0.40666       -0.11911
C          6.22533       -0.11947        0.25670
C          7.20422       -2.43728        0.24677
C          6.46060       -1.40644       -1.90547
H          5.95175       -0.18268        1.33083
H          7.24397        0.30975        0.16234
H          5.53208        0.58710       -0.24634
H          7.14045       -3.45338       -0.20359
H          8.23283       -2.04814        0.09762
H          7.00873       -2.53509        1.33640
H          6.37936       -2.40499       -2.38979
H          5.75873       -0.71547       -2.41227
H          7.48430       -1.01334       -2.07862
Mg         3.18987        1.55852       -2.21359
C          0.24222        3.14674        1.69226
C          0.31168        4.51451        1.81581
C          1.39326        4.94379        1.07364
C          1.97757        3.86830        0.50380
N          1.27761        2.68674        0.84784
C          3.28157        3.92851       -0.26328
N          3.28508        3.47783       -1.69659
C          4.47091        4.05557       -2.42146
H         -0.35283        5.13099        2.41564
H         -0.48324        2.51508        2.17292
H          1.74127        5.96856        1.00483
H          4.03135        3.35768        0.31087
H          3.56029        4.99215       -0.20984
C          5.80834        3.76235       -1.69283
C          4.54553        3.43012       -3.82214
C          4.34034        5.59605       -2.62215
H          5.95379        2.67170       -1.55541
H          6.66698        4.16593       -2.27286
H          5.85520        4.25801       -0.69949
H          3.63006        3.66074       -4.40532
H          5.42005        3.84144       -4.37828
H          4.67210        2.33009       -3.75642
H          3.38700        5.85254       -3.12884
H          4.40502        6.18410       -1.68596
H          5.17369        5.97704       -3.25252
