110
speciation1900.ct
Na         1.11689        0.56631       -0.00106
Mg        -2.02496       -0.39755        1.74152
C          1.57491       -1.77116       -1.86842
C          0.19509       -0.12522       -2.91231
O          0.65674       -0.69456       -1.69137
C          2.76346       -1.48505       -2.80166
C         -0.71292       -1.08021       -3.70863
H          1.99276       -2.00357       -0.86981
H          1.04371       -2.69569       -2.18476
H         -0.41009        0.76880       -2.66559
H          1.02559        0.24619       -3.54581
H         -1.60798       -1.35778       -3.11371
H         -1.05092       -0.58425       -4.64416
H         -0.17925       -2.00729       -4.00465
H          3.27785       -0.55201       -2.49360
H          3.48497       -2.32792       -2.75685
H          2.43817       -1.40348       -3.86092
H         -1.90940       -2.72392        3.20471
C         -3.95332       -2.83505        3.21287
C         -2.70851       -1.96278        3.20954
C         -4.03930       -3.68299        1.94359
H         -3.87590       -3.51874        4.09338
H         -4.86026       -2.20960        3.33160
H         -4.16196       -3.01255        1.06735
H         -3.10734       -4.27786        1.81030
C         -5.21546       -4.64992        2.02930
H         -2.67255       -1.45783        4.19533
H         -5.06926       -5.35794        2.87466
H         -6.16121       -4.09098        2.18688
H         -5.28928       -5.23316        1.08845
C          3.53065       -2.40359        3.65618
C          4.02918       -1.70281        2.57642
C          2.94089       -1.24175        1.87500
C          1.82449       -1.65352        2.56627
N          2.18293       -2.38999        3.64550
C          0.41358       -1.41649        2.17623
N          0.01818       -0.01380        1.91300
C          0.17533        0.97186        3.03683
H          5.07489       -1.56697        2.32102
H          4.12222       -2.93834        4.38706
H          2.94204       -0.68203        0.96228
H         -0.14973       -1.81112        3.01004
H          0.18576       -2.00928        1.26390
C          1.63900        1.14938        3.50981
C         -0.30382        2.33859        2.53238
C         -0.69056        0.59634        4.25670
H          2.30499        1.39424        2.65656
H          1.71310        1.97376        4.25095
H          2.02154        0.26798        4.05379
H         -1.36588        2.29435        2.21055
H         -0.22087        3.10581        3.33949
H          0.31541        2.67420        1.68129
H         -1.76103        0.57073        3.97324
H         -0.39014       -0.37949        4.69071
H         -0.58004        1.35343        5.06403
Na         1.04322       -3.79268        5.17861
Mg        -1.96692       -4.65460        6.84270
C          2.20302        3.32337       -0.53721
C          3.98182        1.75224       -0.31857
O          2.64044        2.09118        0.02981
C          2.37628        3.44485       -2.05740
C          5.02437        2.68870        0.30936
H          1.11868        3.41218       -0.33070
H          2.67041        4.18636       -0.01434
H          4.21527        0.74919        0.07125
H          4.12066        1.67045       -1.41385
H          4.96350        2.65087        1.41771
H          6.04183        2.36466        0.00097
H          4.89632        3.73704       -0.02828
H          1.90697        2.57601       -2.56255
H          1.89294        4.37880       -2.41215
H          3.44734        3.51532       -2.34116
H         -4.64627        0.06236        1.02677
C         -3.72327        1.56855       -0.21171
C         -3.79487        0.77331        1.10105
C         -3.43857        0.65484       -1.40852
H         -4.69558        2.09610       -0.38476
H         -2.92734        2.33944       -0.13342
H         -2.48047        0.12777       -1.22926
H         -4.25093       -0.09770       -1.51269
C         -3.33273        1.44447       -2.71650
H         -4.03521        1.49088        1.91636
H         -4.29369        1.94762       -2.95641
H         -2.53120        2.21010       -2.64491
H         -3.08415        0.75350       -3.55047
C         -0.85388       -7.25481        2.70928
C         -2.06807       -6.80781        3.18104
C         -1.90163       -6.48046        4.51656
C         -0.63223       -6.72328        4.84622
N          0.09715       -7.21031        3.73918
C         -0.03771       -6.58357        6.21486
N         -0.09648       -5.19537        6.71173
C          0.50917       -4.99813        8.05385
H         -2.98074       -6.74767        2.60517
H         -0.65504       -7.60101        1.70386
H         -2.67130       -6.12295        5.18659
H          1.01322       -6.92654        6.14431
H         -0.60479       -7.26487        6.87891
C          2.02257       -5.31202        8.05215
C          0.32725       -3.51417        8.43012
C         -0.19217       -5.84945        9.13751
H          2.54545       -4.70625        7.28049
H          2.46751       -5.08273        9.04441
H          2.22134       -6.38470        7.86054
H         -0.75282       -3.25573        8.46289
H          0.76130       -3.30704        9.43043
H          0.82666       -2.85541        7.67421
H         -1.27793       -5.61576        9.18511
H         -0.07141       -6.93877        8.96059
H          0.24839       -5.65100       10.13874
