83
speciation464.ct
Na         1.01593        0.07506        0.06413
Mg         4.20763        1.97261        0.67101
C         -1.84037       -1.23417       -0.03540
C         -2.00962        1.00314       -0.73947
O         -1.30407        0.07506        0.06413
C         -1.68863       -1.87758       -1.42100
C         -1.41023        2.39170       -0.58542
H         -1.29016       -1.86714        0.69222
H         -2.90321       -1.24965        0.29326
H         -1.96296        0.74921       -1.81816
H         -3.06836        1.06146       -0.39923
H         -0.37096        2.40315       -0.97625
H         -2.01853        3.11758       -1.16847
H         -1.41062        2.69827        0.48087
H         -0.62458       -1.87654       -1.73579
H         -2.05094       -2.92632       -1.37792
H         -2.30307       -1.36054       -2.18578
C          7.09800       -1.41909        2.18671
C          7.19928       -2.24530        1.09409
C          5.95324       -2.26662        0.50729
C          5.15046       -1.39796        1.23262
N          5.84187       -0.93105        2.28756
C          3.69143       -1.07112        0.97966
N          3.38593        0.07506        0.06413
C          3.72243       -0.15950       -1.39094
H          8.08330       -2.77723        0.76825
H          7.89871       -1.18447        2.87627
H          5.68318       -2.83648       -0.36953
H          3.26526       -0.84583        1.96478
H          3.14239       -1.99023        0.69530
C          3.20118       -1.52120       -1.90605
C          3.02087        0.90273       -2.24394
C          5.23710       -0.00467       -1.70773
H          2.10322       -1.59482       -1.75302
H          3.40801       -1.63056       -2.99425
H          3.69237       -2.37815       -1.41160
H          3.45998        1.87379       -2.05122
H          3.19231        0.72237       -3.33066
H          1.93110        0.94481       -2.05653
H          5.63568        0.95558       -1.32089
H          5.87738       -0.80009       -1.33791
H          5.40943       -0.03243       -2.80643
Na         5.19166        0.36818        3.84302
C          5.86087        3.94423       -0.49691
C          3.63640        4.26867       -1.28708
O          4.57633        3.37557       -0.68121
C          5.85801        5.28108        0.25583
C          4.03615        4.65200       -2.73061
H          6.43708        3.21112        0.09002
H          6.41500        4.01644       -1.45605
H          2.64735        3.77054       -1.34330
H          3.45996        5.17121       -0.66988
H          4.10250        3.75166       -3.37904
H          3.28333        5.34135       -3.16475
H          5.01225        5.17830       -2.76547
H          5.26316        5.18673        1.18087
H          6.89559        5.57978        0.50104
H          5.42217        6.09509       -0.35615
C          8.87836        3.68209        2.10407
C          8.62179        2.33924        1.91346
C          7.32300        2.11738        2.32981
C          6.79118        3.26003        2.72667
N          7.73399        4.31043        2.61674
C          5.41069        3.43388        3.29927
N          4.35757        2.58094        2.67339
C          3.00954        2.78211        3.27669
H          9.31197        1.60631        1.53413
H          9.81543        4.17589        1.88172
H          6.81088        1.18919        2.32480
H          5.15961        4.51192        3.27827
H          5.52061        3.16128        4.36598
C          2.46098        4.18251        2.94128
C          2.05881        1.74385        2.67729
C          3.00726        2.57019        4.81492
H          2.48127        4.35026        1.84406
H          1.41412        4.28328        3.30073
H          3.04463        4.98209        3.43909
H          2.37539        0.73529        2.98767
H          1.02330        1.88144        3.05703
H          2.04044        1.82051        1.57091
H          3.40803        1.56513        5.07288
H          3.60088        3.33654        5.35247
H          1.97370        2.63843        5.21814
