95
speciation1640.ct
Na         5.83895        1.16808       -3.06798
Mg         2.34500        4.76134       -0.99622
C          5.03754        5.73168       -0.12840
C          4.28355        7.31854       -1.64875
O          4.15257        5.93951       -1.22100
C          4.55726        6.39778        1.14248
C          5.71349        7.79221       -2.07618
H          5.11277        4.68052        0.07375
H          6.09172        5.94749       -0.35812
H          3.71206        7.46852       -2.56527
H          3.88747        8.02559       -0.89574
H          6.04235        7.28564       -3.00796
H          5.70276        8.88776       -2.26610
H          6.51344        7.68310       -1.31695
H          3.65133        5.89644        1.33278
H          5.25589        6.24460        1.98674
H          4.27626        7.46088        1.07547
H          1.67423        4.74558       -3.77829
C          0.35138        6.43825       -3.70283
C          1.01098        5.20935       -3.02005
C          1.34198        7.54704       -3.99529
H         -0.14619        6.11730       -4.64649
H         -0.46100        6.85942       -3.07879
H          1.76360        7.85136       -3.02883
H          2.13131        7.18465       -4.69281
C          0.66007        8.78299       -4.57071
H          0.10012        4.59291       -2.94223
H          0.23189        8.57377       -5.57251
H         -0.14890        9.11971       -3.88627
H          1.40500        9.60236       -4.65388
C          5.51240       -0.99357       -0.93049
C          5.03404       -1.32952        0.31829
C          4.43428       -0.19625        0.82336
C          4.54440        0.77273       -0.15072
N          5.22429        0.28599       -1.21921
C          3.99516        2.17205       -0.04661
N          2.94971        2.53724       -1.03996
C          1.77170        1.59140       -1.04894
H          5.10977       -2.29117        0.80028
H          6.04457       -1.65618       -1.60281
H          3.93876       -0.10074        1.78147
H          3.62145        2.36952        0.98037
H          4.89190        2.75872       -0.22474
C          1.03611        1.65075        0.30115
C          0.85261        2.05218       -2.14953
C          2.06028        0.09706       -1.40236
H          0.76892        2.69507        0.54029
H          0.11915        1.03426        0.28033
H          1.67118        1.25504        1.11984
H          1.37172        2.01465       -3.13716
H         -0.08062        1.45222       -2.20908
H          0.57896        3.04673       -1.84627
H          2.74607       -0.00368       -2.26954
H          2.41473       -0.49873       -0.54762
H          1.11991       -0.43673       -1.66986
Na         3.88592        2.31736       -2.94473
Mg        -1.14709        2.81573        1.89538
H         -2.42229        3.04074       -0.29200
C         -3.78686        2.15533        1.15760
C         -2.42483        2.26749        0.50598
C         -4.80894        1.72436        0.11024
H         -3.72747        1.39959        1.97049
H         -4.06878        3.13396        1.60212
H         -4.86346        2.49060       -0.69498
H         -4.48772        0.75760       -0.33579
C         -6.18546        1.54463        0.72726
H         -2.12090        1.28404        0.08814
H         -6.14168        0.79193        1.54381
H         -6.55245        2.51075        1.13394
H         -6.88890        1.18689       -0.05324
C         -0.08308        2.67798        4.49641
C          0.87433        3.14782        5.35779
C          1.62195        4.06131        4.64327
C          1.08079        4.10542        3.36121
N          0.04285        3.26181        3.28558
C          1.70074        4.95882        2.25365
N          1.07792        5.15272        0.89207
C         -0.06122        6.15192        0.88715
H          1.01945        2.85052        6.38982
H         -0.83173        1.93472        4.73186
H          2.46573        4.61655        5.02859
H          2.62857        4.37718        2.12113
H          1.95725        5.93929        2.70425
C          0.32350        7.61182        1.28855
C         -0.60952        6.26199       -0.52367
C         -1.22300        5.66870        1.77132
H          0.86690        8.14436        0.47594
H         -0.61072        8.20192        1.45548
H          0.90622        7.70577        2.21773
H         -0.99378        5.29428       -0.90935
H         -1.42592        7.01854       -0.59907
H          0.23881        6.62472       -1.11919
H         -1.54665        4.67202        1.43033
H         -0.94851        5.64370        2.84007
H         -2.10714        6.33689        1.67588
