96
speciation1707.ct
Na         4.20821        1.56696        3.59883
Mg         2.55002        4.58552       -0.89199
C          3.57669        6.57646        0.65821
C          2.01172        5.32129        1.93718
O          2.40370        5.77405        0.64381
C          4.79736        5.95451        1.35321
C          1.52918        6.46706        2.84582
H          3.85131        6.72989       -0.39511
H          3.36397        7.59365        1.04203
H          1.15547        4.63591        1.84304
H          2.81202        4.73493        2.42769
H          0.59338        6.91152        2.44677
H          1.32907        6.07074        3.86326
H          2.28951        7.26735        2.95452
H          5.00929        4.95494        0.93393
H          5.68378        6.59931        1.19305
H          4.64913        5.87672        2.45067
H          5.99391        2.37680       -1.50091
C          6.84106        2.38868       -3.45213
C          5.77001        1.91563       -2.48180
C          8.27591        2.10797       -2.95378
H          6.68604        1.87088       -4.42031
H          6.71510        3.48308       -3.58503
H          8.44598        2.62915       -1.98708
H          8.44220        1.01913       -2.79835
C          9.29032        2.62519       -3.97330
H          5.93701        0.82783       -2.37058
H          9.19604        2.06120       -4.92554
H          9.11757        3.70262       -4.16998
H         10.32672        2.49849       -3.58699
C          4.75686       -0.80616        1.69514
C          4.78178       -1.22121        0.38652
C          4.41453       -0.13627       -0.37353
C          4.15714        0.90454        0.49954
N          4.38076        0.48535        1.76939
C          3.71519        2.32401        0.19058
N          2.86443        2.54542       -1.00766
C          1.52648        1.89153       -1.00730
H          5.03799       -2.20634        0.02495
H          4.99715       -1.41496        2.55602
H          4.31743       -0.14018       -1.44342
H          3.21607        2.73699        1.08585
H          4.62113        2.93731        0.08819
C          0.65699        2.28128        0.19303
C          0.84899        2.39074       -2.23990
C          1.57026        0.34882       -1.14142
H          0.51038        3.37787        0.20702
H         -0.35032        1.81301        0.10271
H          1.09618        1.93802        1.14679
H          1.49134        2.05969       -3.07583
H         -0.16170        1.94634       -2.34274
H          0.77001        3.49831       -2.25086
H          2.18592        0.04687       -2.01597
H          1.91571       -0.14097       -0.21529
H          0.55569       -0.05994       -1.31970
Mg         3.59886        2.44057       -2.97786
C          3.52132        5.49967       -3.42641
C          1.60838        6.73401       -2.77090
O          2.40443        5.57678       -2.55068
C          4.49521        6.68641       -3.35463
C          0.40510        6.74266       -1.83848
H          4.08724        4.59216       -3.13255
H          3.18858        5.33825       -4.47570
H          2.17615        7.66933       -2.57172
H          1.21315        6.72959       -3.80922
H          0.73365        6.81636       -0.78661
H         -0.22654        7.63068       -2.05861
H         -0.20032        5.82556       -1.97927
H          4.80745        6.89122       -2.31476
H          5.40957        6.44735       -3.93660
H          4.05180        7.60343       -3.79408
C          3.78420        2.44589       -5.93503
C          3.29766        2.55829       -7.21846
C          1.96455        2.84963       -7.10040
C          1.67982        2.91139       -5.75475
N          2.82488        2.64995       -5.01057
C          0.28249        3.21923       -5.21773
N         -0.79114        3.04326       -6.21641
C         -2.17022        3.30197       -5.71170
H          3.85154        2.44493       -8.14169
H          4.81086        2.21233       -5.69648
H          1.27157        3.01227       -7.91922
H          0.06442        2.46859       -4.49657
H          0.29136        4.24790       -4.79351
C         -2.39649        4.81529       -5.57845
C         -3.18032        2.74103       -6.73543
C         -2.48977        2.61686       -4.35138
H         -2.19154        5.31304       -6.54873
H         -3.44410        5.03582       -5.27993
H         -1.73016        5.25159       -4.80731
H         -3.07456        1.63642       -6.82624
H         -4.22930        2.95322       -6.41645
H         -3.02653        3.19415       -7.73280
H         -2.36129        1.51255       -4.41622
H         -1.86644        3.01261       -3.52824
H         -3.54861        2.81355       -4.05488
