83
speciation579.ct
Na         1.58044       -0.76509       -1.12206
Mg         2.06785       -0.48378        0.39727
C         -0.13187       -1.55130       -3.73563
C          1.21731       -3.36749       -3.00915
O          0.96875       -1.95907       -2.91243
C         -1.41427       -2.42947       -3.68505
C          2.03998       -3.70130       -4.25246
H         -0.43345       -0.53517       -3.41618
H          0.20630       -1.46319       -4.78930
H          1.72461       -3.76316       -2.12017
H          0.31263       -3.98668       -2.93382
H          3.09664       -3.39545       -4.10684
H          1.99690       -4.79345       -4.44433
H          1.64134       -3.18272       -5.14698
H         -1.79152       -2.52081       -2.64436
H         -2.20576       -1.98738       -4.32166
H         -1.26679       -3.44536       -4.11475
C          5.11091        0.57120       -0.39504
C          6.24263       -0.20410       -0.31503
C          5.81835       -1.47461       -0.57370
C          4.46175       -1.35125       -0.74021
N          3.96858       -0.13978       -0.63821
C          3.43078       -2.27444       -1.12840
N          2.30438       -2.25694       -0.14560
C          2.57148       -2.90357        1.13095
H          7.28079        0.08719       -0.13745
H          5.20637        1.66488       -0.34436
H          6.39428       -2.37491       -0.66557
H          3.77535       -3.22086       -1.50148
H          3.06038       -1.77958       -2.05620
C          3.86074       -2.45039        1.86358
C          1.41046       -2.60622        2.10650
C          2.61402       -4.36977        0.73411
H          3.84814       -1.35727        2.08831
H          3.95980       -2.99330        2.82469
H          4.77362       -2.70943        1.31068
H          0.41426       -2.76048        1.64573
H          1.50168       -3.26716        2.99617
H          1.44808       -1.55426        2.48075
H          1.67212       -4.59744        0.17983
H          3.45135       -4.54043        0.03160
H          2.76820       -5.03948        1.58095
Na         3.09822        1.20196       -1.97691
C          3.70061        0.63154       -5.03791
C          5.65933        0.47951       -3.76204
O          4.39450        1.12361       -3.89938
C          2.37267        1.34912       -5.22307
C          5.62499       -1.06038       -3.74560
H          4.30647        0.81740       -5.95354
H          3.45959       -0.44997       -4.94837
H          6.36956        0.81199       -4.54790
H          6.08969        0.83711       -2.81158
H          5.46638       -1.50228       -4.74694
H          6.56200       -1.47121       -3.31461
H          4.78952       -1.40497       -3.15425
H          2.52808        2.44444       -5.29822
H          1.89700        0.99013       -6.16287
H          1.68984        1.12221       -4.37729
C         -1.58639       -1.11428        0.14684
C         -2.50799       -0.12684        0.48446
C         -1.87812        1.07784        0.25737
C         -0.61406        0.74382       -0.21443
N         -0.43486       -0.54729       -0.26518
C          0.47323        1.59290       -0.70285
N          1.77400        1.28200       -0.01300
C          2.02066        2.37691        1.01694
H         -3.52618       -0.26912        0.82353
H         -1.78778       -2.17519        0.16336
H         -2.30747        2.06530        0.38628
H          0.10109        2.61889       -0.62813
H          0.59526        1.39210       -1.78304
C          0.93538        2.35764        2.12053
C          3.34600        2.19035        1.76781
C          2.10518        3.80565        0.36326
H          0.94251        1.37650        2.64213
H          1.13302        3.15399        2.87265
H         -0.07990        2.55190        1.73210
H          4.19181        2.45123        1.14584
H          3.43745        2.93882        2.58693
H          3.43820        1.17546        2.20175
H          2.88562        3.82128       -0.42838
H          1.18234        4.20725       -0.09363
H          2.36099        4.57352        1.12281
