96
speciation1097.ct
Na         0.94301       -0.05387        0.06205
Mg         4.30941        1.21114       -1.23230
C         -2.04651        0.63320        1.10551
C         -1.87910       -1.37976        0.01049
O         -1.37699       -0.05387        0.06205
C         -1.61766        2.08936        1.16506
C         -1.14360       -2.20667       -1.03263
H         -3.14435        0.64241        0.90362
H         -1.85427        0.15925        2.09453
H         -1.77612       -1.89705        0.99220
H         -2.94892       -1.36223       -0.30114
H         -0.08724       -2.33962       -0.74439
H         -1.60616       -3.21540       -1.09606
H         -1.20032       -1.72069       -2.02845
H         -1.80668        2.58795        0.19118
H         -2.21268        2.60789        1.94928
H         -0.54223        2.16243        1.42353
H          3.21491        3.01072       -2.91423
C          1.80645        3.09272       -1.27737
C          2.76202        2.31152       -2.18377
C          2.53347        4.20003       -0.50685
H          1.01731        3.55584       -1.91210
H          1.31898        2.39232       -0.56621
H          3.31448        3.74850        0.14259
H          3.01974        4.89761       -1.22358
C          1.56159        5.00001        0.36113
H          2.17239        1.56769       -2.75752
H          0.78508        5.48686       -0.26935
H          1.06256        4.33912        1.10184
H          2.11449        5.79243        0.90994
C          7.27423       -0.94218        1.68681
C          7.48571        0.40860        1.85549
C          6.24774        1.01536        1.74998
C          5.33756        0.00505        1.51128
N          5.96842       -1.18434        1.48265
C          3.84407        0.16784        1.41675
N          3.31301       -0.05387        0.06205
C          3.34552       -1.41246       -0.54832
H          8.42913        0.88943        2.07529
H          8.02757       -1.71595        1.75755
H          6.03945        2.07013        1.86856
H          3.60024        1.22056        1.67446
H          3.33062       -0.46250        2.17002
C          2.68129       -2.44777        0.38361
C          2.55737       -1.33924       -1.87430
C          4.74330       -1.88867       -0.99150
H          1.65085       -2.14517        0.64702
H          2.64181       -3.44594       -0.09775
H          3.22935       -2.54123        1.33599
H          3.05048       -0.63268       -2.57148
H          2.52672       -2.33448       -2.36863
H          1.50730       -1.02163       -1.74283
H          5.27816       -1.09439       -1.52438
H          5.41952       -2.34832       -0.28732
H          4.58616       -2.75135       -1.63434
Mg         5.18800       -3.01444        1.44042
C          6.56624        2.90455       -1.82468
C          6.60602        0.89571       -3.11434
O          6.13293        1.54712       -1.93187
C          6.36006        3.78453       -3.07062
C          8.12757        0.66619       -3.09719
H          5.98647        3.36720       -0.99696
H          7.62891        2.94553       -1.50399
H          6.14193       -0.10380       -3.19349
H          6.28965        1.41856       -4.03895
H          8.42261        0.02161       -2.23949
H          8.44598        0.16354       -4.03678
H          8.69319        1.62105       -3.03497
H          5.30299        3.77292       -3.39667
H          6.64935        4.83223       -2.84449
H          7.00839        3.46494       -3.91975
C          3.97219       -5.40181        2.54377
C          3.57958       -6.69933        2.32991
C          3.78956       -6.95507        0.99067
C          4.30674       -5.79516        0.44285
N          4.40758       -4.84454        1.39820
C          4.69572       -5.62270       -1.00561
N          6.09454       -5.18070       -1.11649
C          6.65799       -5.09424       -2.49249
H          3.18503       -7.38196        3.06770
H          3.96237       -4.87946        3.49610
H          3.59629       -7.89206        0.48367
H          4.54108       -6.59892       -1.49908
H          4.01682       -4.87973       -1.46198
C          6.02446       -3.96350       -3.33160
C          8.15405       -4.77347       -2.35066
C          6.50570       -6.42077       -3.26526
H          6.27209       -2.97335       -2.90007
H          6.44806       -3.95546       -4.35742
H          4.92522       -4.09139       -3.43006
H          8.67265       -5.57413       -1.78071
H          8.63835       -4.67216       -3.34585
H          8.29332       -3.81677       -1.79949
H          6.95695       -7.25710       -2.69316
H          5.44004       -6.64820       -3.47534
H          7.00994       -6.34981       -4.25161
