96
speciation1321.ct
Na         1.26630        1.67762        0.13719
Mg         3.41485       -0.19524       -1.67935
C          0.03873        3.37539        2.77689
C          2.38216        3.63006        2.58665
O          1.25237        2.85771        2.19399
C         -0.24380        4.85768        2.45917
C          2.65550        3.63854        4.10683
H         -0.79768        2.71497        2.48208
H         -0.02141        3.25553        3.88332
H          3.30732        3.24888        2.14384
H          2.28653        4.64064        2.15783
H          3.12272        2.68757        4.44169
H          3.31491        4.49859        4.34229
H          1.76518        3.79139        4.73251
H         -0.08607        5.10718        1.41817
H         -1.29460        5.10544        2.68982
H          0.43270        5.53945        3.01726
H          3.95301       -0.83427       -4.23526
C          5.91666       -0.90630       -3.33216
C          4.53530       -0.27960       -3.48359
C          5.78793       -2.36060       -2.88345
H          6.43719       -0.86102       -4.31014
H          6.50580       -0.33296       -2.58042
H          5.25754       -2.40908       -1.90562
H          5.20987       -2.94461       -3.63493
C          7.16900       -2.99132       -2.74602
H          4.64881        0.76854       -3.81342
H          7.67816       -2.99695       -3.73141
H          7.78817       -2.41634       -2.02417
H          7.07124       -4.03813       -2.39594
C         -1.75797        0.72190        0.14927
C         -2.32575       -0.52375        0.01031
C         -1.28199       -1.42970       -0.07035
C         -0.11008       -0.68765        0.01528
N         -0.41716        0.61584        0.13817
C          1.31708       -1.23589       -0.06424
N          2.38159       -0.17948        0.02794
C          3.28239       -0.20414        1.18122
H         -3.38721       -0.73145       -0.05022
H         -2.30484        1.65260        0.21330
H         -1.38240       -2.49985       -0.20051
H          1.40692       -1.73151       -1.05404
H          1.42896       -2.02182        0.71177
C          4.11444       -1.48714        1.32670
C          4.26311        0.96307        0.96635
C          2.44051       -0.03069        2.43612
H          4.83846       -1.58902        0.49302
H          4.68085       -1.43548        2.28852
H          3.47628       -2.38882        1.37606
H          3.70886        1.87521        0.70584
H          4.93076        1.14292        1.84634
H          4.88436        0.77240        0.06131
H          1.72232        0.74947        2.24252
H          1.81237       -0.91834        2.65622
H          3.06615        0.20734        3.31831
Mg         3.31097        3.32889       -1.94003
C          5.35134        4.78303       -3.24212
C          6.17422        3.70491       -1.27118
O          5.04066        4.18318       -1.99101
C          6.14145        3.88842       -4.20238
C          7.10955        4.84924       -0.85881
H          4.38902        5.04126       -3.72474
H          5.85129        5.76479       -3.10410
H          5.82762        3.20249       -0.34418
H          6.73526        2.93446       -1.84032
H          6.57384        5.57136       -0.20660
H          7.99636        4.45425       -0.32323
H          7.49519        5.38014       -1.75101
H          5.61664        2.92127       -4.32504
H          6.22736        4.39233       -5.18718
H          7.17665        3.70910       -3.84125
C         -1.81959       -0.13560       -3.32857
C         -1.79391        0.44219       -4.57340
C         -0.55574        1.06236       -4.71546
C          0.13974        0.90016       -3.56937
N         -0.59543        0.09680       -2.68118
C          1.46793        1.57165       -3.20487
N          1.45296        2.51863       -2.02453
C          0.55239        3.69897       -2.15405
H         -2.63095        0.45480       -5.26507
H         -2.66251       -0.65519       -2.88994
H         -0.26831        1.66487       -5.56716
H          1.85818        2.10165       -4.10013
H          2.17572        0.75828       -2.98904
C         -0.92497        3.30234       -2.18870
C          0.70815        4.53631       -0.88997
C          0.85217        4.53529       -3.41397
H         -1.17667        2.71405       -1.30229
H         -1.60088        4.16467       -2.30379
H         -1.16604        2.73798       -3.06347
H          1.72381        4.93127       -0.68947
H         -0.01017        5.39203       -0.89101
H          0.44007        3.84360       -0.07114
H          1.93669        4.68132       -3.58812
H          0.43140        4.02155       -4.30303
H          0.35383        5.52864       -3.34427
