68
speciation36.ct
Na         1.31680        1.64645        0.17117
Mg         3.64983       -0.42080       -1.40845
C          0.09172        3.27393        2.58394
C          2.42934        3.69038        2.52596
O          1.35965        2.85825        2.07087
C         -0.30297        4.72017        2.25066
C          2.68680        3.63566        4.04162
H         -0.68103        2.61001        2.15341
H          0.02243        3.09289        3.68014
H          3.36952        3.36993        2.06575
H          2.29372        4.73309        2.19605
H          2.96688        2.61025        4.36157
H          3.52876        4.32047        4.28485
H          1.81566        3.98256        4.63344
H         -0.25633        4.88006        1.15510
H         -1.33535        4.91893        2.60858
H          0.34928        5.45475        2.76831
C         -1.71386        0.63641        0.38144
C         -2.27337       -0.61953        0.29451
C         -1.22718       -1.51696        0.17625
C         -0.06379       -0.77036        0.19843
N         -0.36738        0.53651        0.31676
C          1.35059       -1.30726        0.04040
N          2.38037       -0.23228        0.07406
C          3.38413       -0.29485        1.14808
H         -3.32935       -0.85203        0.28612
H         -2.24898        1.57678        0.44006
H         -1.30780       -2.59002        0.05868
H          1.40457       -1.81284       -0.94823
H          1.51288       -2.08274        0.80932
C          4.23017       -1.58263        1.06081
C          4.31441        0.89253        0.90833
C          2.70125       -0.19991        2.52857
H          4.72280       -1.65806        0.06728
H          5.02403       -1.57260        1.83915
H          3.62886       -2.49970        1.21150
H          3.72010        1.80568        0.78838
H          5.05821        1.01008        1.72510
H          4.86333        0.77804       -0.05337
H          2.03390        0.67088        2.57229
H          2.07976       -1.09467        2.73695
H          3.45987       -0.11625        3.33370
Na        -0.18030        4.05257       -1.87309
C          4.42175        5.32388        0.21042
C          3.24750        6.03572        0.09742
C          2.42662        5.35097       -0.78702
C          3.07788        4.26058       -1.19377
N          4.35141        4.17655       -0.59061
C          2.62488        3.28668       -2.23955
N          1.36027        2.57307       -1.93855
C          0.97140        1.65375       -3.07955
H          3.03118        6.96810        0.60020
H          5.27544        5.59687        0.81536
H          1.44805        5.67078       -1.12188
H          3.45654        2.56955       -2.36880
H          2.51681        3.89351       -3.15911
C          1.99519        0.51711       -3.31287
C         -0.37824        0.98774       -2.78304
C          0.77547        2.40993       -4.41462
H          2.05740       -0.10775       -2.41594
H          1.66631       -0.15339       -4.13500
H          3.00470        0.87916       -3.58678
H         -1.15644        1.72917       -2.50969
H         -0.73485        0.38334       -3.64468
H         -0.25794        0.25291       -1.99919
H          0.01591        3.21082       -4.30369
H          1.71786        2.82953       -4.81378
H          0.41613        1.70351       -5.19770
