110
speciation2669.ct
Na         5.43793        5.36004        2.54104
Mg         1.21037        1.52677       -1.13839
C          0.75689       -1.78497       -0.70985
C          1.50133       -0.74314        1.21079
O          1.26985       -0.54825       -0.17897
C         -0.51674       -2.46984       -0.11700
C          2.40824       -1.94238        1.58430
H          0.52365       -1.55638       -1.69407
H          1.56869       -2.54576       -0.77261
H          2.09132        0.09875        1.51804
H          0.54933       -0.80205        1.78845
H          3.35116       -1.89723        1.00555
H          2.65343       -1.90601        2.66719
H          1.92377       -2.92781        1.40914
H         -1.43846       -1.86982       -0.25742
H         -0.69157       -3.43456       -0.66248
H         -0.43016       -2.76772        0.95039
H          4.99612        2.74406       -4.76238
C          6.41477        3.52424       -3.37235
C          4.94216        3.30393       -3.80485
C          7.20235        4.37013       -4.39426
H          6.47274        4.05303       -2.41465
H          6.91841        2.54434       -3.23489
H          7.29059        3.81881       -5.35512
H          6.67153        5.32928       -4.58359
C          8.60122        4.71883       -3.87386
H          4.50036        4.29859       -4.02034
H          8.52270        5.32193       -2.94277
H          9.18614        3.79994       -3.66059
H          9.14856        5.32457       -4.62808
C          3.27341        3.98874        4.00794
C          2.28789        3.05154        4.09977
C          2.29164        2.36515        2.91730
C          3.29033        2.91241        2.10259
N          3.89540        3.89086        2.80860
C          3.62740        2.49705        0.63231
N          2.85096        3.10323       -0.51282
C          2.99602        4.68125       -0.44676
H          1.61121        2.90335        4.93837
H          3.50230        4.72145        4.76709
H          1.61010        1.58228        2.74070
H          4.71482        2.66975        0.48892
H          3.58871        1.40063        0.57676
C          4.47645        5.11777       -0.37231
C          2.46972        5.54452       -1.62656
C          2.22931        5.40444        0.72506
H          4.96132        4.71502       -1.24897
H          4.58894        6.22851       -0.40601
H          4.98899        4.78391        0.52337
H          1.35304        5.52157       -1.71836
H          2.61983        6.63971       -1.47933
H          3.04694        5.42829       -2.56128
H          1.13612        5.26660        0.67625
H          2.54777        5.26769        1.73008
H          2.35838        6.52184        0.65983
Na        -1.99580       -0.90329       -3.18574
Mg         3.37139        2.10548       -2.52358
C         -0.25830        2.99363        0.81135
C         -1.80197        2.07980       -0.72766
O         -0.44857        2.44098       -0.48912
C         -0.82863        2.20842        2.00135
C         -2.76865        3.28551       -0.61548
H          0.82173        3.05902        0.95762
H         -0.62934        4.03711        0.84418
H         -1.88620        1.69506       -1.76048
H         -2.12250        1.25672       -0.05519
H         -2.48991        4.08296       -1.33728
H         -3.80946        2.96221       -0.81595
H         -2.77845        3.73444        0.40241
H         -0.52441        2.71443        2.94403
H         -0.44271        1.17666        2.00246
H         -1.93374        2.17888        2.00007
H          5.25377       -0.09476       -3.48526
C          3.87584       -0.69077       -1.96954
C          4.68030        0.39163       -2.65523
C          4.55320       -2.07390       -1.99937
H          3.66868       -0.34086       -0.94461
H          2.91575       -0.76942       -2.48381
H          4.97008       -2.13709       -3.01510
H          4.30949       -2.81330       -2.78846
C          5.82162       -2.15491       -1.16487
H          4.06678        0.91963       -3.40511
H          6.57808       -1.45277       -1.57673
H          5.61268       -1.88250       -0.10894
H          6.22575       -3.18628       -1.19971
C          0.14165       -3.10629       -3.69239
C          1.43671       -3.34155       -4.10231
C          1.97723       -2.11568       -4.41528
C          1.00947       -1.17191       -4.13012
N         -0.13095       -1.78645       -3.74409
C          1.12364        0.28922       -4.44189
N          1.40542        1.41459       -3.45309
C          1.02642        2.64799       -4.25975
H          1.92812       -4.30072       -4.17891
H         -0.56533       -3.85930       -3.37012
H          2.96710       -1.92444       -4.80664
H          0.13982        0.42331       -4.91760
H          1.86665        0.32356       -5.25883
C         -0.49934        2.83414       -4.51586
C          1.42916        3.77166       -3.45516
C          1.77238        2.79803       -5.64193
H         -1.06622        2.78740       -3.56915
H         -0.68747        3.83449       -4.96976
H         -0.93677        2.12887       -5.24515
H          2.49625        3.62932       -3.29477
H          1.24853        4.74771       -3.96678
H          0.87204        3.68492       -2.50271
H          2.87175        2.73947       -5.53248
H          1.46023        2.05311       -6.40208
H          1.54207        3.77889       -6.11504
