81
speciation372.ct
Na         0.94742       -0.00449       -0.08494
Mg         3.98074        1.72309       -0.81674
C         -1.87854       -1.32560       -0.01157
C         -1.97689        0.76005       -1.10931
O         -1.37258       -0.00449       -0.08494
C         -1.60926       -2.17790       -1.25769
C         -1.34508        2.14425       -1.14669
H         -1.36370       -1.81444        0.84256
H         -2.96070       -1.32115        0.24493
H         -1.82999        0.31365       -2.11393
H         -3.06103        0.88769       -0.89263
H         -0.26826        2.06389       -1.40886
H         -1.85259        2.76462       -1.91633
H         -1.44504        2.64219       -0.15960
H         -0.52922       -2.15791       -1.51336
H         -1.91348       -3.22652       -1.05653
H         -2.20655       -1.82975       -2.12487
H          3.95834        4.28911       -1.24651
C          4.80259        3.49479       -3.08418
C          4.66074        3.49409       -1.56694
C          3.47741        3.19856       -3.80510
H          5.19016        4.48406       -3.41206
H          5.54297        2.71680       -3.36792
H          3.67722        3.19564       -4.89840
H          3.10557        2.19362       -3.51701
C          2.38432        4.23293       -3.52388
H          5.63893        3.70589       -1.08595
H          2.08360        4.21944       -2.45616
H          2.73429        5.25106       -3.79653
H          1.48344        3.99140       -4.12569
C          3.44193        2.75524        3.54381
C          2.10771        2.56243        3.26578
C          2.03494        1.49798        2.38984
C          3.33493        1.08734        2.16488
N          4.18671        1.85200        2.88677
C          3.77348       -0.08509        1.32688
N          3.31742       -0.00449       -0.08494
C          3.73893       -1.16068       -0.92245
H          1.28163        3.12728        3.67560
H          3.85036        3.49847        4.21742
H          1.13059        1.06689        1.98687
H          3.35206       -0.98403        1.81537
H          4.88029       -0.11978        1.37965
C          3.14702       -2.49394       -0.40181
C          3.19724       -0.92992       -2.34053
C          5.27871       -1.28472       -0.99542
H          2.03863       -2.44087       -0.35323
H          3.42788       -3.33222       -1.07602
H          3.53505       -2.76272        0.60129
H          3.60776        0.00818       -2.76471
H          3.48103       -1.77111       -3.01165
H          2.08819       -0.85963       -2.32464
H          5.73334       -0.33260       -1.34113
H          5.71694       -1.55709       -0.01290
H          5.57076       -2.09453       -1.69879
Mg         6.11859        1.73595        3.09227
C          8.48003        5.77429        1.75697
C          7.13898        5.56251        1.99248
C          7.03450        4.46900        2.83393
C          8.26510        4.03110        3.10203
N          9.23929        4.81641        2.44896
C          8.59533        2.87399        3.99709
N          8.03472        1.63257        3.44357
C          8.24207        0.40760        4.25232
H          6.32621        6.15320        1.59170
H          8.89426        6.55945        1.13905
H          6.11711        4.04868        3.21966
H          8.17257        3.10049        4.99606
H          9.69889        2.79348        4.06886
C          7.72391        0.56445        5.70193
C          7.43802       -0.71794        3.57959
C          9.73023        0.00714        4.27309
H          6.65741        0.87590        5.70693
H          7.80860       -0.39945        6.25027
H          8.31832        1.30566        6.27498
H          7.77219       -0.86463        2.53029
H          7.56427       -1.67812        4.12565
H          6.35473       -0.46726        3.56870
H         10.11124       -0.12026        3.23758
H         10.34895        0.76947        4.78872
H          9.86674       -0.95224        4.81816
