110
speciation2529.ct
Na         3.44677        0.05213        2.47834
Mg         2.20101        4.75890       -1.10375
C          4.30027        6.98494       -0.69859
C          4.73811        5.28636       -2.30336
O          3.96400        5.68491       -1.17881
C          4.30047        8.11989       -1.73816
C          6.23476        5.09473       -2.00095
H          3.58866        7.25200        0.10840
H          5.29538        6.94801       -0.19759
H          4.35353        4.31358       -2.63033
H          4.58361        5.95543       -3.17049
H          6.38551        4.37370       -1.17201
H          6.74829        4.69900       -2.90421
H          6.72569        6.05410       -1.73739
H          3.29778        8.22248       -2.19794
H          4.57211        9.07417       -1.23764
H          5.06509        7.96683       -2.52895
H          0.86277        6.47173       -2.85259
C         -0.60009        4.91614       -3.24793
C          0.87057        5.36472       -2.91059
C         -1.16662        5.40295       -4.59058
H         -0.74074        3.82834       -3.33744
H         -1.27017        5.25492       -2.43178
H         -2.20709        5.01068       -4.67237
H         -1.20582        6.50868       -4.62912
C         -0.39074        4.86129       -5.79154
H          1.54611        5.04959       -3.72112
H          0.61209        5.31733       -5.81626
H         -0.30365        3.75151       -5.74851
H         -0.90868        5.13230       -6.73454
C          5.40781       -0.92359        0.30580
C          6.02250       -0.62456       -0.88962
C          5.57707        0.63049       -1.26262
C          4.68158        1.03613       -0.29203
N          4.60541        0.08757        0.67238
C          3.91338        2.33929       -0.19844
N          2.86164        2.65188       -1.24261
C          1.74577        1.63410       -1.30390
H          6.72617       -1.25852       -1.41167
H          5.53727       -1.83032        0.88341
H          5.86968        1.17823       -2.13836
H          3.48328        2.23812        0.77310
H          4.65300        3.15728       -0.19216
C          0.86773        1.60266       -0.03271
C          0.88373        2.05527       -2.45170
C          2.17341        0.18387       -1.60680
H          0.42883        2.60009        0.17671
H          0.01943        0.89437       -0.16761
H          1.44069        1.23739        0.84305
H          1.45815        2.10714       -3.40413
H         -0.01019        1.40692       -2.58777
H          0.58304        3.03673       -2.11531
H          2.81388        0.16594       -2.48581
H          2.65426       -0.32298       -0.75664
H          1.28868       -0.45057       -1.83675
Na         4.17164        2.26029       -3.17845
Mg         4.23218        2.71630       -6.37716
C         -0.01769        6.18907        0.55350
C          1.48717        5.13656        1.95367
O          1.14208        5.36696        0.59318
C          0.17170        7.60783        1.14668
C          2.53544        4.10663        2.02490
H         -0.35897        6.30422       -0.49423
H         -0.86789        5.69144        1.08229
H          1.90187        6.03319        2.45352
H          0.61696        4.71599        2.51916
H          3.42955        4.45812        1.46310
H          2.80715        3.84056        3.06341
H          2.02835        3.25278        1.58355
H          0.95097        8.16114        0.58580
H         -0.78425        8.17161        1.09915
H          0.44537        7.58657        2.22255
H          2.34788        4.22617       -7.25224
C          3.66094        5.66473       -6.26744
C          3.02054        4.27611       -6.37190
C          4.45537        6.05965       -7.51978
H          2.84522        6.40368       -6.11625
H          4.33575        5.69205       -5.38957
H          5.31351        5.36895       -7.66226
H          3.79749        6.00474       -8.41380
C          4.98082        7.49232       -7.39864
H          2.46664        4.04024       -5.44756
H          4.13502        8.20513       -7.27948
H          5.65846        7.59119       -6.52385
H          5.54241        7.77211       -8.31562
C          5.50654        2.44121       -9.18217
C          6.85531        2.39314       -9.45878
C          7.52385        2.49246       -8.24644
C          6.52808        2.58458       -7.27842
N          5.32456        2.56985       -7.85571
C          6.60649        2.63829       -5.74598
N          5.48163        1.86871       -5.11428
C          5.48115        0.37381       -5.37639
H          7.31199        2.28620      -10.45008
H          4.69665        2.35485       -9.90632
H          8.58431        2.48439       -8.09691
H          7.60941        2.35890       -5.37044
H          6.44253        3.70469       -5.48193
C          6.80742       -0.28378       -4.94168
C          4.35047       -0.26019       -4.56440
C          5.18697       -0.04457       -6.84157
H          7.02197       -0.07451       -3.87502
H          6.75445       -1.38773       -5.07632
H          7.65435        0.07929       -5.55825
H          3.37708        0.22773       -4.79234
H          4.24842       -1.34868       -4.77797
H          4.59063       -0.18336       -3.49978
H          4.23068        0.39615       -7.19894
H          6.01944        0.17820       -7.52993
H          5.07718       -1.14870       -6.92281
