95
speciation1805.ct
Na        -1.16190       -4.19696        1.68307
Mg         2.12738        0.59989        4.19725
C          2.51172        3.10336        2.82879
C          4.50325        2.36612        3.84924
O          3.09505        2.20823        3.76252
C          2.92623        2.84240        1.37636
C          5.11687        1.35910        4.80342
H          1.41510        2.97750        2.88303
H          2.70635        4.16122        3.11780
H          5.00085        2.18640        2.87633
H          4.74368        3.38405        4.23393
H          4.92739        0.32482        4.45353
H          6.21172        1.53539        4.87029
H          4.70704        1.47876        5.80854
H          2.74077        1.78064        1.11331
H          2.33689        3.49593        0.70011
H          3.99379        3.08877        1.20474
H          1.34834       -3.68512       10.55945
C          1.35350       -3.83444        8.37825
C          1.42987       -3.02198        9.67479
C          2.52088       -4.81270        8.19785
H          0.39462       -4.39777        8.36103
H          1.34880       -3.13557        7.51687
H          2.38347       -5.32525        7.21997
H          3.47805       -4.25299        8.16819
C          2.57751       -5.87642        9.29127
H          0.55419       -2.33817        9.69995
H          2.78515       -5.41804       10.28030
H          1.61799       -6.43476        9.33797
H          3.39621       -6.59073        9.06832
C          3.15661       -1.39627        2.17392
C          2.86893       -2.58706        1.52694
C          1.63012       -2.99349        1.97191
C          1.20027       -2.02334        2.85850
N          2.13459       -1.04711        2.98925
C         -0.10120       -2.00688        3.60645
N         -0.79939       -3.31352        3.60394
C         -2.10182       -3.32824        4.32206
H          3.50091       -3.10936        0.81900
H          4.05977       -0.82752        2.05880
H          1.10933       -3.88986        1.65772
H         -0.71794       -1.20038        3.17241
H          0.17657       -1.75472        4.64698
C         -3.15648       -2.47067        3.58680
C         -2.62000       -4.78079        4.37883
C         -1.94581       -2.83437        5.76712
H         -3.30696       -2.83568        2.55151
H         -4.13455       -2.51505        4.12023
H         -2.86828       -1.39986        3.54757
H         -1.90138       -5.43076        4.91799
H         -3.59239       -4.81860        4.92783
H         -2.78260       -5.18273        3.36380
H         -1.15665       -3.40617        6.30150
H         -1.66628       -1.77790        5.74387
H         -2.89703       -2.90697        6.33420
Na         0.49709       -4.61198        4.70174
Mg         3.06536       -1.73947        9.96240
H          5.37142       -1.19475       11.14250
C          5.91003       -3.13853       10.39659
C          4.87846       -2.17320       10.97739
C          6.40717       -2.76923        8.99070
H          6.78058       -3.18525       11.08978
H          5.45065       -4.14738       10.35106
H          7.12755       -3.55606        8.67578
H          5.55643       -2.76925        8.27760
C          7.12888       -1.42221        8.91887
H          4.57597       -2.54179       11.97924
H          6.43596       -0.58717        9.14295
H          7.98265       -1.39579        9.62893
H          7.52243       -1.27289        7.89037
C          4.03923        0.92711        9.67316
C          4.06507        2.05892        8.90279
C          3.28466        1.79484        7.80473
C          2.79310        0.50637        7.94976
N          3.28775       -0.02321        9.08843
C          1.84565       -0.25653        7.04125
N          1.15744        0.53440        5.99508
C          0.00788        1.42203        6.38041
H          4.59301        2.97688        9.12366
H          4.54600        0.80895       10.61788
H          3.11053        2.48737        7.00238
H          1.09852       -0.77962        7.66207
H          2.42588       -1.07048        6.55023
C          0.48203        2.71337        7.05947
C         -0.74462        1.81359        5.09980
C         -1.01080        0.75709        7.34371
H          1.19302        3.25508        6.40522
H         -0.37142        3.39333        7.25614
H          0.91497        2.49067        8.05399
H         -1.17461        0.92059        4.59970
H         -1.57668        2.51737        5.32919
H         -0.06096        2.31748        4.39374
H         -1.51257       -0.09750        6.88488
H         -0.55554        0.43553        8.30113
H         -1.81847        1.47478        7.60728
