83
speciation484.ct
Na         1.84478        0.52766       -2.29257
Mg         6.90948        0.66065       -4.85909
C         -0.14494       -1.87711       -0.99762
C          0.57037       -0.74112        0.80700
O          0.45846       -0.62115       -0.65199
C         -0.46669       -1.99962       -2.45853
C          1.11244        0.45297        1.56824
H          0.53793       -2.72804       -0.73861
H         -1.12953       -2.02069       -0.47678
H         -0.43523       -0.90656        1.27687
H          1.24004       -1.60883        1.07959
H          0.44494        1.33071        1.46518
H          1.13649        0.17649        2.65289
H          2.14340        0.67748        1.26700
H          0.45455       -1.88801       -3.06185
H         -0.88579       -3.01790       -2.63015
H         -1.23797       -1.25879       -2.74478
C          1.13740        2.57859       -4.92941
C          1.37814        3.19101       -6.15741
C          2.57222        2.72648       -6.59469
C          3.06829        1.89999       -5.61218
N          2.16561        1.75224       -4.55899
C          4.44501        1.29766       -5.82348
N          5.51659        2.02632       -5.11946
C          6.15706        3.28781       -5.54811
H          0.76316        3.90594       -6.69210
H          0.25395        2.77527       -4.35484
H          3.06422        2.98847       -7.53211
H          4.70195        1.19969       -6.90043
H          4.39433        0.26509       -5.42197
C          5.17137        4.45961       -5.65942
C          7.17731        3.63460       -4.44225
C          6.90877        3.11132       -6.87348
H          4.58501        4.57501       -4.72333
H          5.72461        5.40590       -5.84703
H          4.49643        4.33902       -6.51724
H          7.91508        2.81012       -4.32331
H          7.73317        4.56985       -4.67150
H          6.66368        3.76899       -3.46435
H          7.67478        2.32888       -6.76905
H          6.21826        2.83129       -7.69347
H          7.42742        4.05249       -7.15891
Na         4.20660        2.41791       -3.18362
C          8.20482       -1.06855       -3.12429
C          9.26097       -0.85875       -5.23036
O          8.05330       -0.78289       -4.50367
C          9.11895       -0.09502       -2.37327
C          8.99547       -0.57795       -6.69954
H          7.19561       -1.00483       -2.66603
H          8.54004       -2.11935       -2.97786
H         10.00924       -0.11439       -4.88384
H          9.67097       -1.89177       -5.16222
H          8.67114        0.46536       -6.82140
H          9.92644       -0.71615       -7.28878
H          8.20307       -1.24701       -7.09495
H          8.77906        0.95006       -2.52620
H          9.08967       -0.33002       -1.28826
H         10.17420       -0.19849       -2.69941
C          4.25700       -1.03205       -0.89221
C          5.32762       -0.85478       -0.03162
C          5.32802        0.47133        0.32772
C          4.26804        1.04214       -0.33659
N          3.61213        0.13538       -1.08469
C          3.89078        2.47325       -0.22397
N          2.89660        2.80949       -1.24778
C          2.42902        4.22535       -1.16282
H          6.03154       -1.60441        0.30371
H          3.96741       -1.96846       -1.34345
H          6.02418        0.97263        0.98971
H          3.51737        2.64515        0.80627
H          4.81400        3.05963       -0.39594
C          3.59990        5.23989       -1.21806
C          1.52421        4.50431       -2.36281
C          1.59885        4.46455        0.12048
H          4.21815        5.07135       -2.12610
H          3.21273        6.28184       -1.24771
H          4.25119        5.17593       -0.32232
H          0.66909        3.79821       -2.36128
H          1.11804        5.53918       -2.32334
H          2.10529        4.40596       -3.30200
H          0.74934        3.75098        0.17405
H          2.20842        4.36084        1.03999
H          1.18963        5.49866        0.13144
