110
speciation2278.ct
Na         4.86941       -2.71077       -0.65196
Mg         5.09649        2.91027       -0.35745
C          6.67634       -4.93293       -0.01014
C          6.38198       -3.40649        1.79794
O          6.52061       -3.57604        0.39481
C          5.49099       -5.82766        0.35951
C          7.58813       -3.88914        2.62646
H          6.77305       -4.93795       -1.11617
H          7.63408       -5.36781        0.35263
H          6.29772       -2.31581        1.98474
H          5.44525       -3.86879        2.16309
H          8.51489       -3.34788        2.33944
H          7.38703       -3.69166        3.70117
H          7.75787       -4.98124        2.52997
H          4.55136       -5.37530       -0.01829
H          5.62195       -6.83142       -0.09656
H          5.42515       -5.97150        1.45772
H          6.30933        0.82946        1.08759
C          4.94954        0.78895        2.71520
C          5.66943        1.59413        1.57701
C          4.09306        1.54027        3.75881
H          4.32873       -0.00119        2.24720
H          5.73023        0.26417        3.32081
H          3.65605        0.78271        4.45553
H          4.71752        2.22297        4.37508
C          2.94472        2.32145        3.14661
H          6.36450        2.28765        2.10756
H          3.35065        3.13011        2.51143
H          2.29531        1.65018        2.54711
H          2.33457        2.77602        3.95817
C          3.33126        3.12055       -2.85074
C          2.53811        2.42393       -3.73474
C          2.54827        1.11773       -3.31324
C          3.37920        1.07400       -2.20178
N          3.80776        2.30804       -1.87193
C          3.82544       -0.13121       -1.42616
N          3.67069       -1.45090       -2.07280
C          4.47170       -1.80041       -3.29809
H          2.02216        2.81557       -4.60784
H          3.54127        4.17996       -2.93052
H          2.02976        0.30039       -3.79158
H          3.24094       -0.12652       -0.48334
H          4.88570        0.01339       -1.14762
C          5.98829       -1.84420       -2.96923
C          3.92249       -3.16729       -3.72784
C          4.36573       -0.87469       -4.54299
H          6.26728       -2.50705       -2.13883
H          6.57056       -2.20524       -3.84368
H          6.35537       -0.82078       -2.73145
H          2.84981       -3.03646       -4.01065
H          4.45288       -3.58485       -4.60739
H          3.95152       -3.89043       -2.88769
H          3.36071       -0.86118       -5.00469
H          4.73600        0.15248       -4.34399
H          5.03456       -1.26533       -5.34699
Na         1.71983       -2.47821       -1.74839
Mg         0.56420        6.31125        1.72738
C         -1.23976       -2.64580       -0.94419
C         -0.24692       -4.78346       -0.90228
O         -0.12989       -3.43872       -1.33904
C         -1.40705       -2.49871        0.57596
C          0.96596       -5.58502       -1.34239
H         -1.07938       -1.63275       -1.36543
H         -2.17816       -3.02488       -1.40864
H         -0.29198       -4.86815        0.20401
H         -1.14250       -5.25513       -1.36777
H          1.87857       -5.18231       -0.85631
H          0.83591       -6.64623       -1.03473
H          1.07611       -5.53995       -2.44489
H         -0.46273       -2.14381        1.03490
H         -2.21413       -1.76579        0.78994
H         -1.71566       -3.45503        1.04834
H          7.69881        3.66069       -1.00606
C          6.85713        3.93736       -2.99645
C          6.88706        3.22165       -1.62102
C          6.55416        5.43723       -2.90504
H          7.85184        3.81232       -3.48464
H          6.10378        3.44768       -3.65242
H          5.55197        5.57877       -2.45278
H          7.31681        5.93288       -2.26704
C          6.57642        6.10734       -4.28718
H          7.15369        2.16523       -1.84408
H          7.58733        6.04066       -4.74646
H          5.84127        5.63347       -4.97262
H          6.31527        7.18301       -4.18685
C          5.30977        5.35552        1.17925
C          4.68629        6.47066        1.70291
C          3.38569        6.42102        1.27693
C          3.26667        5.26318        0.50485
N          4.46583        4.62098        0.44186
C          1.98065        4.77796       -0.12011
N          0.94254        5.82801       -0.12245
C         -0.36845        5.48478       -0.72331
H          5.13567        7.22477        2.33767
H          6.34869        5.09414        1.33630
H          2.60928        7.13927        1.53018
H          2.20281        4.52524       -1.15520
H          1.64449        3.87567        0.43714
C         -1.07530        4.41748        0.12923
C         -1.21549        6.76872       -0.72462
C         -0.25784        4.99227       -2.18628
H         -1.16335        4.76342        1.18084
H         -2.09443        4.21714       -0.26511
H         -0.51941        3.45816        0.11350
H         -0.72961        7.55255       -1.34722
H         -2.22856        6.57788       -1.14174
H         -1.32809        7.16845        0.30524
H          0.20085        5.76567       -2.83914
H          0.32558        4.05349       -2.27065
H         -1.27445        4.77358       -2.58510
