95
speciation1676.ct
Na         1.29798        1.88389        0.00135
Mg         6.66998        1.24018       -3.44028
C          6.23469        3.88082       -2.56066
C          7.80571        2.70704       -1.21067
O          6.69158        2.62015       -2.08762
C          7.27971        4.73119       -3.28901
C          7.45398        3.40476        0.11086
H          5.43028        3.68545       -3.27115
H          5.72650        4.45148       -1.75878
H          8.11142        1.67436       -0.94515
H          8.68290        3.18548       -1.68998
H          6.62870        2.86496        0.62093
H          8.34116        3.41932        0.77755
H          7.15029        4.45905       -0.05311
H          7.73955        4.15439       -4.10897
H          6.78740        5.61631       -3.74003
H          8.05858        5.10125       -2.59105
H          8.56015        0.59121       -5.41657
C          9.73221        2.03101       -4.37485
C          8.36515        1.50942       -4.83518
C         10.40941        1.11406       -3.35625
H         10.39150        2.12957       -5.26770
H          9.62010        3.03549       -3.92702
H          9.76345        1.01107       -2.46269
H         10.57386        0.10532       -3.79285
C         11.75303        1.70631       -2.92789
H          7.96149        2.24266       -5.56420
H         12.43578        1.78740       -3.80110
H         11.60643        2.71908       -2.49262
H         12.22799        1.05926       -2.16177
C         -1.79167        1.10280        0.00247
C         -2.40993       -0.13133       -0.06832
C         -1.40569       -1.07771       -0.14558
C         -0.21726       -0.37880       -0.11149
N         -0.45968        0.93956       -0.02277
C          1.17053       -0.98526       -0.15995
N          2.24500        0.03300       -0.00400
C          3.04191       -0.05760        1.24663
H         -3.47428       -0.31980       -0.06474
H         -2.28313        2.06321        0.06669
H         -1.52778       -2.15130       -0.20994
H          1.30172       -1.50107       -1.13409
H          1.21202       -1.76297        0.62462
C          3.80008       -1.40367        1.34527
C          4.09207        1.06768        1.22880
C          2.14207        0.14785        2.48694
H          4.44614       -1.54893        0.45328
H          4.44524       -1.41787        2.25067
H          3.12457       -2.27691        1.42834
H          3.60664        2.06170        1.13397
H          4.68566        1.06185        2.17071
H          4.79548        0.93621        0.37878
H          1.62532        1.13005        2.43146
H          1.37109       -0.64344        2.57934
H          2.75014        0.12866        3.41750
Na         3.59933        0.09296       -1.94799
Mg         3.34873       -4.06167       -5.56824
H          1.42623       -6.05210       -5.61057
C          0.48888       -4.38524       -6.63543
C          1.39890       -4.94522       -5.53774
C          0.96138       -4.82054       -8.02945
H         -0.54669       -4.76233       -6.47966
H          0.48827       -3.28089       -6.55406
H          2.01056       -4.49614       -8.18595
H          0.91055       -5.93031       -8.11566
C          0.08969       -4.21099       -9.13026
H          0.96686       -4.68557       -4.54244
H         -0.96558       -4.54652       -9.03405
H          0.12378       -3.10185       -9.07968
H          0.46886       -4.52855      -10.12524
C          6.08926       -3.51372       -6.43147
C          7.23911       -2.77787       -6.24639
C          6.98068       -1.90434       -5.21705
C          5.67765       -2.10891       -4.84273
N          5.12842       -3.12091       -5.57333
C          4.97306       -1.33499       -3.75917
N          4.95365        0.15292       -3.89199
C          4.34212        0.69447       -5.16754
H          8.16808       -2.86459       -6.79639
H          5.96597       -4.30800       -7.16018
H          7.64709       -1.18547       -4.79284
H          5.47030       -1.57622       -2.79862
H          3.93345       -1.71678       -3.67825
C          2.87576        0.25501       -5.32590
C          4.37672        2.22878       -5.14473
C          5.12538        0.30867       -6.45622
H          2.27870        0.58763       -4.45160
H          2.43566        0.70655       -6.24356
H          2.79276       -0.84488       -5.43283
H          5.43075        2.57933       -5.11843
H          3.93666        2.64926       -6.07893
H          3.79181        2.63185       -4.29567
H          6.19796        0.57920       -6.37105
H          5.02404       -0.75089       -6.73600
H          4.71925        0.84218       -7.34327
