95
speciation1397.ct
Na         1.07672        0.11913       -0.30760
Mg         1.46057        4.73454        4.03462
C          3.90794       -0.76415        0.99306
C          2.12741       -1.85658        1.96660
O          2.48833       -0.78869        1.10354
C          4.39292        0.44736        0.22293
C          0.63815       -1.86507        2.23952
H          4.36567       -0.66080        2.00475
H          4.29190       -1.68604        0.49865
H          2.40989       -2.84042        1.52910
H          2.61470       -1.72688        2.96305
H          0.07024       -2.00608        1.29860
H          0.39666       -2.68134        2.95284
H          0.34657       -0.92351        2.71895
H          4.02067        1.38460        0.69350
H          5.50663        0.45742        0.22546
H          4.05648        0.39792       -0.83017
H          3.94778        5.44646        3.62288
C          4.02810        4.28413        5.45997
C          3.35275        5.29715        4.54914
C          4.16843        2.93258        4.75729
H          5.03482        4.66774        5.73716
H          3.41960        4.17088        6.38295
H          3.16393        2.55024        4.47159
H          4.77991        3.05450        3.83632
C          4.84924        1.91647        5.66886
H          3.26794        6.27162        5.07467
H          5.85750        2.27874        5.96415
H          4.23977        1.75128        6.58284
H          4.96061        0.95073        5.13305
C         -1.49898        4.76260        4.02156
C         -2.60786        4.01006        3.69630
C         -2.15061        2.91797        2.99298
C         -0.77884        3.05043        2.90465
N         -0.38523        4.18571        3.53270
C          0.14577        2.05245        2.24428
N         -0.17740        1.80184        0.81167
C         -0.05420        3.02731       -0.08520
H         -3.63266        4.21170        3.97809
H         -1.50153        5.65685        4.62988
H         -2.74634        2.10377        2.61668
H          0.01131        1.12067        2.80475
H          1.20696        2.34975        2.36342
C          1.37872        3.59925       -0.07299
C         -0.42431        2.61949       -1.51373
C         -1.03830        4.18976        0.27802
H          2.11098        2.83314       -0.39580
H          1.44733        4.47277       -0.75389
H          1.66739        3.97298        0.93736
H         -1.46984        2.25271       -1.54026
H         -0.35359        3.49944       -2.18677
H          0.26075        1.84107       -1.88896
H         -2.08578        3.82685        0.35983
H         -0.75822        4.75506        1.18434
H         -1.01527        4.98081       -0.50053
Na         3.15452       -3.85014       -5.36127
Mg        -2.13390        1.47522        0.65182
H         -4.66750        1.54090        1.37896
C         -4.48376       -0.32305        0.25925
C         -4.13955        1.14039        0.48795
C         -3.99343       -1.19421        1.41308
H         -5.58704       -0.41830        0.15025
H         -4.00423       -0.65602       -0.68587
H         -2.88926       -1.09890        1.50585
H         -4.46583       -0.85971        2.36210
C         -4.34957       -2.65843        1.17029
H         -4.47064        1.71865       -0.40037
H         -5.45176       -2.77866        1.09074
H         -3.87666       -3.02093        0.23215
H         -3.98431       -3.27646        2.01639
C          2.98850       -1.06771       -6.60246
C          2.74335        0.27681       -6.42162
C          2.42491        0.44451       -5.08983
C          2.48062       -0.80398       -4.50845
N          2.83028       -1.72657       -5.44091
C          2.21016       -1.09911       -3.05134
N          0.88884       -0.62366       -2.57886
C         -0.30221       -1.37224       -3.10767
H          2.79184        1.04471       -7.18058
H          3.27557       -1.54233       -7.53356
H          2.17649        1.36956       -4.59755
H          2.98144       -0.55155       -2.48924
H          2.37113       -2.17341       -2.81459
C         -0.21709       -2.88190       -2.79298
C         -1.55988       -0.79585       -2.44190
C         -0.50123       -1.20820       -4.64251
H         -0.09189       -3.05304       -1.70561
H         -1.13969       -3.40201       -3.13575
H          0.61819       -3.36496       -3.34321
H         -1.76355        0.23121       -2.81295
H         -2.45131       -1.41761       -2.68653
H         -1.44145       -0.76433       -1.34030
H         -0.54163       -0.13506       -4.92810
H          0.28104       -1.71071       -5.23840
H         -1.45219       -1.68369       -4.97102
