83
speciation515.ct
Na         1.16853        1.82441        0.01010
Li         2.61565       -2.66534        1.06680
C          0.31251        1.93484       -3.77977
C          0.18228        3.88191       -2.63140
O          0.23626        2.46783       -2.40249
C         -0.99323        1.95531       -4.62405
C          0.17833        4.66030       -1.37067
H          1.08500        2.47089       -4.38427
H          0.69439        0.91539       -3.86746
H          1.04645        4.25678       -3.23550
H         -0.75680        4.17832       -3.14006
H          1.14152        4.51433       -0.91212
H          0.09425        5.73713       -1.61677
H         -0.65479        4.32097       -0.72771
H         -1.55924        2.90434       -4.58621
H         -0.72497        1.83406       -5.70227
H         -1.67485        1.12375       -4.35875
C          4.15117        1.25091        2.49165
C          5.27123        2.11449        2.55968
C          4.95533        3.21844        1.83400
C          3.72231        2.95176        1.36188
N          3.21611        1.75650        1.62501
C          2.97233        3.69464        0.45476
N          2.84783        2.80367       -0.65977
C          4.01973        2.17608       -1.35139
H          6.25335        1.96528        2.99906
H          4.15962        0.26023        2.91352
H          5.54975        4.08990        1.56897
H          3.33359        4.67797        0.14112
H          1.95610        3.79544        0.93236
C          5.35434        2.95743       -1.58466
C          4.49935        0.79042       -0.77040
C          3.33934        2.18596       -2.72192
H          6.22336        2.25375       -1.50060
H          5.52329        3.21455       -2.65255
H          5.59179        3.74978       -0.86540
H          3.69923        0.14325       -0.51407
H          5.18469        0.26758       -1.48030
H          5.05184        0.71715        0.18667
H          2.40128        1.64519       -2.61620
H          3.04006        3.24700       -2.91435
H          3.89478        1.82841       -3.59449
Na         1.88837        0.94534       -0.09120
C          3.76153       -3.58847        3.35867
C          4.30826       -4.80764        1.38887
O          3.29382       -4.13870        2.13118
C          4.99755       -2.68075        3.24914
C          4.81296       -6.09240        2.06201
H          2.93514       -2.97112        3.76738
H          3.93115       -4.38908        4.10934
H          3.87331       -5.11555        0.41611
H          5.15098       -4.13359        1.13754
H          3.98949       -6.83094        2.15901
H          5.61653       -6.54014        1.43872
H          5.24685       -5.89501        3.06301
H          4.82474       -1.89012        2.49230
H          5.19865       -2.20894        4.23387
H          5.90862       -3.25489        2.98065
C         -1.81143        0.89475        0.40275
C         -2.68604       -0.16804        0.51184
C         -1.89326       -1.30121        0.58426
C         -0.56114       -0.82984        0.51248
N         -0.54882        0.46230        0.39788
C          0.60413       -1.74773        0.51209
N          1.92000       -1.15400       -0.02500
C          2.00916       -1.64031       -1.48884
H         -3.74454       -0.12657        0.49397
H         -2.09890        1.91506        0.29662
H         -2.24210       -2.33654        0.61995
H          0.73686       -2.29092        1.45538
H          0.22265       -2.54800       -0.16090
C          0.78478       -1.03593       -2.23462
C          3.18344       -1.20673       -2.40610
C          2.24950       -3.18204       -1.49173
H          0.87957        0.04907       -2.02689
H          0.79242       -1.23238       -3.32466
H         -0.23805       -1.25840       -1.90283
H          4.17968       -1.57451       -2.09292
H          3.04132       -1.51706       -3.46673
H          3.20096       -0.16875       -2.56224
H          3.26099       -3.34808       -1.04954
H          1.60485       -3.81974       -0.87224
H          2.26255       -3.59821       -2.51977
