110
speciation2417.ct
Na         1.16665        1.08724        0.06060
Mg         4.05267        4.20932       -0.88000
C         -0.37418        3.42897       -0.29777
C         -1.79292        2.09597        1.03342
O         -0.76993        2.10489        0.02467
C          0.14850        4.19447        0.88883
C         -3.10102        2.75321        0.55552
H          0.47986        3.30001       -0.94210
H         -1.10556        3.96392       -0.93122
H         -2.05804        1.06221        1.29071
H         -1.44592        2.53641        1.98069
H         -3.54600        2.19261       -0.29573
H         -3.83085        2.77289        1.39126
H         -2.94941        3.80815        0.24673
H          0.73927        3.47105        1.45418
H          0.77617        5.04086        0.55922
H         -0.66953        4.53975        1.53848
H          6.53446        2.89503       -1.08579
C          7.15504        4.74656       -0.14176
C          6.23361        3.96161       -1.11348
C          7.09216        4.26574        1.31552
H          8.20768        4.60286       -0.47894
H          6.95166        5.83399       -0.19218
H          6.07423        4.35038        1.74908
H          7.38561        3.19587        1.32267
C          8.07493        5.05755        2.19500
H          6.45880        4.35178       -2.12960
H          8.39336        4.44420        3.06513
H          7.60347        5.99321        2.56726
H          8.99264        5.33392        1.63243
C          2.09520        4.09861       -3.07417
C          1.15869        3.68530       -3.97260
C          0.87765        2.36912       -3.69154
C          1.63928        1.97353       -2.60133
N          2.43177        3.12042       -2.21434
C          1.49861        0.38678       -2.11637
N          0.41126       -0.10169       -1.10936
C          0.24816       -1.19990       -0.00153
H          0.73535        4.29550       -4.75915
H          2.52863        5.09299       -3.03252
H          0.18450        1.75576       -4.24382
H          2.47348       -0.09737       -2.05149
H          1.23183       -0.13687       -3.05736
C          0.61555       -0.70157        1.43495
C         -1.23276       -1.61803        0.15157
C          0.96832       -2.53571       -0.21027
H          0.03967        0.18711        1.74724
H          0.45703       -1.47524        2.22195
H          1.65067       -0.44396        1.51908
H         -1.60877       -2.15597       -0.73798
H         -1.36185       -2.31075        1.02513
H         -1.88571       -0.76447        0.34475
H          0.55040       -3.10560       -1.06142
H          2.03483       -2.37378       -0.31710
H          0.82352       -3.20963        0.68259
Na        -1.52330        0.16781       -1.93364
Mg         3.95783       -1.20272       -1.37907
C          3.52883       -2.95595       -3.50390
C          5.43955       -3.43985       -2.15559
O          4.60449       -2.43907       -2.72700
C          2.70428       -4.05612       -2.83259
C          6.23241       -4.23045       -3.20384
H          2.84912       -2.10280       -3.70682
H          3.88423       -3.29974       -4.49762
H          6.19006       -2.93824       -1.51343
H          4.87647       -4.11856       -1.48439
H          6.91147       -3.55503       -3.76556
H          6.84364       -5.00521       -2.69374
H          5.56355       -4.75201       -3.91809
H          2.44848       -3.72857       -1.83504
H          1.77673       -4.25674       -3.40734
H          3.26179       -5.00457       -2.71623
H          4.93097        6.61008        0.12843
C          3.03665        7.47588       -0.29710
C          4.17754        6.51100       -0.68540
C          3.51104        8.94096       -0.08217
H          2.27750        7.45216       -1.10163
H          2.57447        7.13239        0.65082
H          4.24122        8.99609        0.75777
H          4.00870        9.33231       -0.99623
C          2.33227        9.86529        0.25085
H          4.64507        6.88601       -1.61977
H          1.60549        9.87820       -0.58885
H          1.81469        9.52476        1.17288
H          2.68548       10.90754        0.41767
C          3.33431        4.48706        1.97116
C          2.78962        3.67428        2.92396
C          2.70903        2.41627        2.35669
C          3.31930        2.47975        1.09009
N          3.57409        3.76725        0.86093
C          3.74151        1.46438       -0.01521
N          3.29451        0.06548        0.00359
C          4.17670       -0.63572        1.12549
H          2.44679        3.97199        3.90833
H          3.49374        5.55137        2.07075
H          2.25834        1.61122        2.88909
H          4.81556        1.57097       -0.18799
H          3.42192        1.79608       -0.92156
C          4.09702       -0.08294        2.58479
C          3.87260       -2.14183        1.32005
C          5.71020       -0.59862        0.80360
H          4.69865       -0.68516        3.29822
H          4.56302        0.91472        2.69493
H          3.09701       -0.19451        3.03156
H          4.05041       -2.72472        0.39990
H          4.56579       -2.58235        2.07951
H          2.87052       -2.32570        1.75060
H          5.94887       -1.14033       -0.12554
H          6.16107        0.41047        0.77008
H          6.28973       -1.07916        1.62809
