83
speciation476.ct
Na         1.25288        1.90150        0.14647
Mg        -0.42676        2.80044       -4.84798
C         -0.15598        3.38288        3.15637
C          2.09019        3.24796        3.13855
O          0.94900        2.90019        2.35499
C         -1.53047        2.80750        2.86833
C          3.34664        3.01903        2.39991
H         -0.02312        3.08761        4.22851
H         -0.22849        4.49515        3.10382
H          2.10444        4.32710        3.43158
H          2.13503        2.58650        4.03775
H          3.41004        3.73570        1.56825
H          4.23158        3.08006        3.05822
H          3.24913        2.01334        2.07638
H         -1.53192        1.70018        2.93898
H         -2.23530        3.19339        3.64293
H         -1.89434        3.17948        1.90226
C         -1.91449        1.20220       -0.04945
C         -2.59050        0.03232       -0.29256
C         -1.62030       -0.93048       -0.49022
C         -0.39472       -0.30839       -0.33800
N         -0.59070        1.00332       -0.05199
C          0.95131       -0.96342       -0.53426
N          2.12893       -0.12027       -0.20130
C          3.18654       -0.49070        0.77574
H         -3.66321       -0.09966       -0.34644
H         -2.39988        2.16196        0.11590
H         -1.79654       -1.97128       -0.73225
H          0.95808       -1.05694       -1.63365
H          1.05110       -2.02425       -0.19223
C          3.84187       -1.87253        0.57608
C          4.32530        0.51936        0.51261
C          2.62526       -0.45446        2.21956
H          4.27442       -1.97989       -0.44053
H          4.69069       -1.96841        1.29913
H          3.14079       -2.70444        0.76867
H          3.90723        1.49914        0.26158
H          5.05330        0.60217        1.34450
H          4.89853        0.25362       -0.39911
H          1.96774        0.40615        2.42369
H          1.99835       -1.35135        2.40813
H          3.46111       -0.47045        2.95574
Na         3.12171       -0.66854       -2.02957
C         -2.09136        1.72024       -6.24450
C         -1.14660       -0.23644       -5.06229
O         -1.02196        1.08988       -5.54321
C         -2.66135        1.12080       -7.53738
C         -1.25904       -1.30799       -6.16906
H         -2.88976        2.06081       -5.55774
H         -1.60608        2.64604       -6.63208
H         -0.16571       -0.46491       -4.58670
H         -1.93649       -0.34063       -4.29664
H         -0.46086       -1.20080       -6.93823
H         -1.15782       -2.31866       -5.71966
H         -2.24307       -1.29995       -6.66592
H         -3.42768        0.35213       -7.32596
H         -3.20270        1.93377       -8.07771
H         -1.87444        0.74716       -8.22591
C          0.15394        5.70936       -4.83500
C          0.54295        6.77703       -4.04463
C          0.81853        6.26330       -2.80489
C          0.59320        4.91204       -2.88622
N          0.18377        4.55508       -4.13483
C          0.79094        4.00994       -1.71243
N          1.79990        2.96728       -1.89113
C          3.18973        3.32129       -2.38713
H          0.62647        7.81591       -4.32812
H         -0.16028        5.78808       -5.86806
H          1.15714        6.80729       -1.92949
H         -0.17427        3.51052       -1.49627
H          1.07062        4.59520       -0.80909
C          3.99103        4.06087       -1.31073
C          3.89619        2.01270       -2.77840
C          3.27278        4.17416       -3.68314
H          4.02969        3.47631       -0.39758
H          5.04396        4.22361       -1.63168
H          3.53403        5.04784       -1.08955
H          3.38563        1.52757       -3.64061
H          4.95869        2.18424       -3.06577
H          3.88251        1.31478       -1.95192
H          2.70120        3.71527       -4.51734
H          2.98039        5.22313       -3.53174
H          4.33138        4.25753       -4.02001
