68
speciation75.ct
Na         1.60258       -0.52382       -1.37750
Li         2.00300       -0.10283        0.01435
C          0.27066       -3.03239       -2.53383
C          1.10214       -1.79610       -4.35001
O          0.83888       -1.79405       -2.96500
C         -1.11103       -3.34052       -3.13923
C          1.97316       -0.61763       -4.72114
H          0.97274       -3.87637       -2.71739
H          0.12370       -2.98246       -1.43672
H          1.61571       -2.72948       -4.68476
H          0.13911       -1.66490       -4.88857
H          3.02255       -0.79571       -4.41247
H          1.93745       -0.48296       -5.82214
H          1.58560        0.30014       -4.23016
H         -1.05773       -3.46445       -4.24048
H         -1.49419       -4.30089       -2.72820
H         -1.83717       -2.53810       -2.89286
C          5.09634        0.78748       -0.91830
C          6.23853       -0.02179       -0.77053
C          5.80491       -1.31089       -0.92240
C          4.46106       -1.20032       -1.10940
N          3.96773        0.04651       -1.07238
C          3.45205       -2.24400       -1.31025
N          2.36188       -2.06618       -0.33014
C          2.60697       -2.75423        0.95103
H          7.26227        0.26528       -0.58435
H          5.15888        1.86261       -0.83142
H          6.38975       -2.22309       -0.88745
H          3.16468       -2.69470       -2.28050
H          3.09171       -1.75561       -2.22660
C          3.99589       -2.50544        1.59758
C          1.54839       -2.30505        1.97486
C          2.44080       -4.24096        0.61876
H          4.15137       -1.42881        1.83510
H          4.07997       -3.07842        2.54713
H          4.82322       -2.86435        0.95834
H          0.52468       -2.37709        1.56109
H          1.60645       -2.93687        2.88841
H          1.72539       -1.24983        2.28706
H          1.45660       -4.38924        0.12097
H          3.22453       -4.54825       -0.10969
H          2.51279       -4.88598        1.51138
Na         2.84966        2.32949       -1.71965
C         -1.44050       -0.93183        0.10700
C         -2.43776       -0.08286        0.54205
C         -1.95312        1.19414        0.33434
C         -0.70397        1.04898       -0.21587
N         -0.38269       -0.23717       -0.34688
C          0.22399        2.07438       -0.70186
N          1.55530        1.86234       -0.09666
C          1.87866        2.69366        1.08163
H         -3.40265       -0.35179        0.92478
H         -1.50860       -2.02070        0.09308
H         -2.48331        2.12340        0.53395
H         -0.19759        3.08566       -0.56507
H          0.31922        1.90066       -1.78526
C          0.91189        2.44659        2.25621
C          3.28618        2.31322        1.55326
C          1.89486        4.18661        0.68015
H          0.94168        1.37938        2.56791
H          1.20723        3.06985        3.12950
H         -0.13027        2.71426        1.99300
H          4.01218        2.55048        0.76719
H          3.58364        2.89886        2.44828
H          3.34272        1.22978        1.79915
H          2.55395        4.32488       -0.20502
H          0.89199        4.57527        0.42151
H          2.27383        4.81816        1.50801
