96
speciation1049.ct
Na         1.07591       -0.52241       -0.16347
Mg        -2.48325        3.28314       -0.81695
C         -0.00667       -1.18231        2.63303
C          0.43217       -3.16819        1.44790
O          0.55613       -1.75964        1.46026
C          0.88472       -1.41387        3.86489
C          0.95953       -3.75343        0.14539
H         -0.10272       -0.09242        2.45672
H         -1.04709       -1.52630        2.81933
H          1.05958       -3.60883        2.24969
H         -0.63185       -3.47221        1.56020
H          2.02213       -3.51689        0.01494
H          0.85183       -4.85642        0.17028
H          0.42717       -3.36820       -0.73428
H          1.93965       -1.14472        3.65333
H          0.52213       -0.80482        4.71955
H          0.86523       -2.47765        4.17379
H         -4.70127        4.19698        0.11823
C         -4.83964        2.11814        0.74178
C         -4.44577        3.18752       -0.26833
C         -4.05600        2.26555        2.04529
H         -5.93001        2.19441        0.94488
H         -4.65486        1.12418        0.29938
H         -2.96421        2.21703        1.83894
H         -4.29276        3.24908        2.50574
C         -4.42103        1.15191        3.02375
H         -5.01931        3.02018       -1.20434
H         -5.51119        1.16531        3.23813
H         -4.14657        0.16228        2.59833
H         -3.86837        1.29469        3.97560
C          0.97845        2.41681       -5.23701
C          1.48628        1.55209       -6.17909
C          1.45564        0.28596       -5.61493
C          0.91920        0.44077       -4.35068
N          0.64338        1.72036       -4.12991
C          0.65035       -0.62565       -3.31640
N         -0.01775       -0.06658       -2.10388
C         -1.47614       -0.34769       -1.98619
H          1.84506        1.81878       -7.16624
H          0.86988        3.48700       -5.35787
H          1.78098       -0.63243       -6.07801
H          1.61945       -1.07021       -3.02863
H          0.05341       -1.40922       -3.80773
C         -1.80475       -1.85476       -1.92077
C         -1.95878        0.25692       -0.66429
C         -2.26560        0.29834       -3.14707
H         -1.33662       -2.30180       -1.03302
H         -2.90054       -2.00236       -1.80460
H         -1.51432       -2.41584       -2.82825
H         -1.85749        1.35033       -0.66308
H         -3.02124        0.00315       -0.50293
H         -1.37831       -0.14844        0.18974
H         -2.07741        1.39197       -3.19281
H         -1.98946       -0.14926       -4.12386
H         -3.35894        0.14914       -3.00439
Mg        -0.02487        1.88252       -2.39810
C          3.98016       -0.47629       -0.73297
C          3.67061        0.63757        1.31439
O          3.05038        0.15755        0.12869
C          4.58594       -1.75671       -0.14984
C          2.69433        1.38983        2.20361
H          3.43091       -0.74938       -1.65440
H          4.77606        0.22914       -1.05922
H          4.07471       -0.19059        1.93039
H          4.47555        1.35996        1.04931
H          1.89591        0.72876        2.53759
H          3.22234        1.79156        3.09234
H          2.22236        2.22827        1.69336
H          3.78945       -2.41415        0.22414
H          5.16265       -2.29247       -0.93151
H          5.27479       -1.53949        0.68972
C          3.72933        4.31868       -0.15665
C          3.74696        3.25335       -1.02698
C          2.45688        2.75554       -1.10029
C          1.67903        3.49281       -0.30421
N          2.42722        4.50101        0.33709
C          0.20463        3.30307       -0.09920
N         -0.56884        3.37641       -1.35213
C         -0.47379        4.67639       -2.11513
H          4.61552        2.88376       -1.55906
H          4.57887        4.93126        0.10930
H          2.13769        1.92102       -1.70156
H         -0.17858        4.04159        0.63398
H          0.03979        2.29926        0.35043
C          0.94138        5.01141       -2.66642
C         -1.40700        4.57567       -3.33208
C         -0.93803        5.87532       -1.25711
H          1.38257        4.16083       -3.21403
H          0.90340        5.88255       -3.35491
H          1.64561        5.34677       -1.88811
H         -2.45791        4.42165       -3.01521
H         -1.36035        5.50919       -3.93870
H         -1.11219        3.73357       -3.98542
H         -1.97801        5.72827       -0.90027
H         -0.27344        6.02921       -0.38159
H         -0.89840        6.81533       -1.85176
