83
speciation505.ct
Na         1.04470       -0.07882        0.04231
Mg         3.83206        3.60064       -1.24683
C         -2.07022        0.92594        0.70813
C         -1.82194       -1.36299        0.29206
O         -1.27530       -0.07882        0.04231
C         -2.07712        0.85872        2.23919
C         -0.94080       -2.44640       -0.30206
H         -1.69199        1.93537        0.50009
H         -3.10259        0.94322        0.30013
H         -1.88381       -1.58791        1.37665
H         -2.82636       -1.44473       -0.18086
H          0.05737       -2.42611        0.18054
H         -1.40646       -3.43772       -0.10424
H         -0.83614       -2.30534       -1.39536
H         -1.03756        0.80701        2.62411
H         -2.55722        1.78217        2.63116
H         -2.67704        0.00424        2.60807
C          6.07228        2.36297       -2.74534
C          6.62506        1.21482       -3.25726
C          5.86591        0.17367       -2.77286
C          4.86757        0.71584       -1.99389
N          4.99908        2.08147       -1.98514
C          3.73989       -0.16540       -1.42082
N          3.41470       -0.07882        0.04231
C          4.11171       -1.21089        0.76472
H          7.46634        1.13503       -3.93238
H          6.40551        3.37747       -2.94888
H          6.00814       -0.87859       -3.02218
H          3.99002       -1.18808       -1.73422
H          2.82575       -0.12941       -1.99557
C          5.64653       -1.19887        0.50836
C          3.91291       -1.07580        2.28051
C          3.53152       -2.59723        0.37626
H          6.09114       -0.22914        0.81819
H          6.15133       -2.01568        1.06835
H          5.90622       -1.37608       -0.55302
H          2.83795       -1.11310        2.54716
H          4.43025       -1.91365        2.80303
H          4.36842       -0.14167        2.65149
H          2.45188       -2.65414        0.57838
H          3.68894       -2.90708       -0.69121
H          4.03807       -3.41046        0.95456
Na         3.73720        1.54925        0.73004
C          1.94279        4.89855       -2.88038
C          3.72027        6.31347       -2.41841
O          2.99174        5.19472       -1.96406
C          2.45966        4.18808       -4.14074
C          4.78430        6.72273       -1.42139
H          1.18960        4.30549       -2.34754
H          1.33919        5.78801       -3.14488
H          4.21413        6.11235       -3.39046
H          3.02733        7.18175       -2.50264
H          5.55156        5.92795       -1.32922
H          5.26137        7.65811       -1.77972
H          4.33694        6.94110       -0.43712
H          3.19398        3.39478       -3.90424
H          1.61050        3.73377       -4.69261
H          2.96789        4.90812       -4.80937
C         -0.12764        1.13503       -2.32052
C          1.09245        1.29955       -2.88314
C          1.84347        2.01994       -1.96780
C          1.15750        2.28210       -0.87026
N         -0.13722        1.81148       -1.09302
C          1.61074        2.95051        0.44825
N          3.05955        3.25832        0.49018
C          3.68028        3.81380        1.71074
H          1.42613        0.88024       -3.82487
H         -0.94532        0.55574       -2.73268
H          2.82445        2.26599       -2.12594
H          1.38227        2.22805        1.26403
H          1.01418        3.86581        0.59568
C          3.40264        2.97255        2.98820
C          5.20847        3.81839        1.47552
C          3.16767        5.22651        1.94687
H          3.75732        1.93127        2.89329
H          3.94640        3.40134        3.86050
H          2.32560        2.94695        3.24584
H          5.46133        4.38825        0.55950
H          5.75450        4.26157        2.33565
H          5.59712        2.78168        1.33754
H          3.29591        5.82000        1.03210
H          2.08518        5.19854        2.18896
H          3.70831        5.70462        2.78986
