53
speciation832.ct
Na         6.30429       -1.84063        0.24372
C          1.95983       -3.84726        1.13903
C          3.23288       -4.33446        1.35490
C          4.06749       -3.23964        1.42240
C          3.26523       -2.13066        1.23686
N          1.98403       -2.50328        1.06633
C          3.72440       -0.70345        1.24108
N          4.66192       -0.47643        0.12933
C          5.25345        0.87978        0.03694
H          3.51961       -5.37128        1.46472
H          1.06232       -4.44302        1.04557
H          5.13302       -3.25843        1.59715
H          4.20285       -0.51361        2.22233
H          2.83400       -0.05110        1.12868
C          6.06475        1.22889        1.30378
C          6.21518        0.87692       -1.16489
C          4.17608        1.95816       -0.20743
H          6.84034        0.45639        1.49375
H          6.57074        2.21108        1.18218
H          5.41570        1.31279        2.19868
H          5.66948        0.63195       -2.10139
H          6.69755        1.87065       -1.29163
H          7.01619        0.11994       -1.02434
H          3.60946        1.74150       -1.13809
H          3.46254        2.02701        0.63809
H          4.65085        2.95831       -0.31434
Na         3.59319       -0.90057       -1.67253
Mg         0.44815       -1.34259        0.80741
C         -1.22341        1.06856        1.09641
C         -2.44079        1.60348        0.72814
C         -3.07322        0.64929       -0.03592
C         -2.21121       -0.42975       -0.10234
N         -1.08808       -0.17418        0.59388
C         -2.46138       -1.69712       -0.86287
N         -2.44515       -2.85551        0.04365
C         -2.71303       -4.16655       -0.59867
H         -2.82263        2.58372        0.98187
H         -0.47337        1.56430        1.69754
H         -4.04823        0.73293       -0.49960
H         -3.44910       -1.59860       -1.35333
H         -1.66676       -1.78409       -1.62885
C         -1.59758       -4.53954       -1.59895
C         -2.73820       -5.23261        0.51160
C         -4.08631       -4.18535       -1.30736
H         -0.60856       -4.54627       -1.09223
H         -1.77956       -5.54984       -2.02555
H         -1.55459       -3.83135       -2.45046
H         -3.51777       -4.99256        1.26628
H         -2.96325       -6.23716        0.08851
H         -1.75610       -5.28761        1.02860
H         -4.89263       -3.90923       -0.59421
H         -4.11618       -3.49187       -2.17161
H         -4.30323       -5.19812       -1.70978
