68
speciation92.ct
Na         2.33617       -0.01074        1.09533
Mg         1.08631       -0.91165        2.14698
C          4.41139        0.82949        3.33009
C          2.59795       -0.47763        4.24759
O          3.15273        0.20415        3.12504
C          4.38423        2.11222        4.19088
C          3.28514       -1.80357        4.56828
H          5.20763        0.12587        3.64640
H          4.73022        1.14905        2.32104
H          2.48633        0.17150        5.14381
H          1.55531       -0.73956        3.99484
H          4.24461       -1.63418        5.09452
H          2.62391       -2.41209        5.22400
H          3.45714       -2.39274        3.65065
H          3.39174        2.61038        4.20490
H          5.11773        2.84638        3.78197
H          4.70961        1.89634        5.23122
C         -0.49112        1.16301        3.08859
C         -0.82886        2.49569        3.12882
C          0.09656        3.14541        2.34378
C          0.96538        2.20511        1.84605
N          0.57757        0.97869        2.30949
C          2.15401        2.50597        0.90216
N          2.02841        1.68661       -0.29374
C          2.79785        1.71829       -1.55579
H         -1.65346        2.92725        3.67504
H         -1.02026        0.35793        3.59204
H          0.12559        4.19924        2.15376
H          3.09709        2.25818        1.40371
H          2.16797        3.58537        0.63894
C          4.19330        1.12184       -1.41333
C          2.01609        0.84045       -2.57403
C          2.91139        3.13940       -2.09368
H          4.07560        0.07026       -1.19267
H          4.73845        1.14856       -2.38316
H          4.79283        1.63072       -0.63293
H          0.97219        1.19793       -2.69827
H          2.51044        0.79530       -3.56676
H          1.93948       -0.20717       -2.21872
H          1.90309        3.58155       -2.22797
H          3.50588        3.75999       -1.39311
H          3.43074        3.12566       -3.07889
Na         1.15477        0.10254       -0.21585
C         -1.91574        0.67742        0.20173
C         -2.90896       -0.26750        0.33703
C         -2.29628       -1.50719        0.21690
C         -0.95801       -1.25593       -0.00291
N         -0.74155        0.04780        0.01506
C          0.17692       -2.21734       -0.34538
N          1.52096       -1.87055        0.23141
C          2.65596       -2.78302       -0.11872
H         -3.96445       -0.07374        0.49858
H         -2.04382        1.75650        0.25006
H         -2.77949       -2.46789        0.24416
H         -0.14546       -3.24402       -0.11667
H          0.25552       -2.10487       -1.44491
C          2.82944       -2.98430       -1.64698
C          4.00886       -2.29237        0.47714
C          2.40066       -4.13152        0.55845
H          3.12201       -2.05099       -2.16558
H          3.63582       -3.72228       -1.84853
H          1.91105       -3.38676       -2.11834
H          3.93793       -2.13181        1.56219
H          4.80878       -3.04246        0.28585
H          4.42012       -1.36938        0.08704
H          2.33446       -3.97338        1.65820
H          1.46887       -4.60345        0.20634
H          3.23342       -4.83344        0.34697
