110
speciation2420.ct
Na         1.49032       -0.27075        0.05807
Mg         1.92071       -5.97849       -2.72505
C          0.07548        2.25271        0.06624
C          0.60932        1.99579        2.32596
O          0.44559        1.33498        1.07146
C          1.24527        3.12046       -0.34346
C          0.66302        1.01128        3.48593
H         -0.24744        1.63688       -0.78976
H         -0.80369        2.87476        0.34477
H          1.53045        2.60886        2.34310
H         -0.27240        2.64767        2.54009
H          1.54390        0.35185        3.38454
H          0.75417        1.58182        4.43800
H         -0.26450        0.40419        3.53340
H          2.12283        2.47412       -0.56314
H          1.00236        3.72073       -1.25307
H          1.53673        3.83321        0.45576
H          3.42994       -3.95055       -1.83633
C          4.89632       -5.49297       -1.95707
C          3.48222       -5.03920       -1.62773
C          5.03222       -7.00150       -1.78289
H          5.11449       -5.22407       -3.01356
H          5.61698       -4.95958       -1.29939
H          4.80917       -7.28625       -0.73253
H          4.30446       -7.50428       -2.45255
C          6.43880       -7.46860       -2.14092
H          3.27270       -5.18971       -0.54565
H          6.68649       -7.17930       -3.18466
H          7.18372       -7.01827       -1.45041
H          6.49154       -8.57402       -2.05585
C         -0.91188       -6.00429       -3.29743
C         -2.04380       -5.24162       -3.31571
C         -1.71318       -4.04601       -2.71249
C         -0.39439       -4.14884       -2.26075
N          0.09857       -5.32335       -2.72225
C          0.46691       -3.18520       -1.40100
N         -0.17806       -2.00135       -0.73391
C         -1.17128       -2.31845        0.37074
H         -2.99836       -5.52506       -3.74040
H         -0.82858       -6.99875       -3.71743
H         -2.39775       -3.23330       -2.62101
H          1.27886       -2.82963       -2.06003
H          0.96081       -3.79672       -0.62135
C         -0.48175       -2.95326        1.59451
C         -1.85396       -1.01125        0.79159
C         -2.34668       -3.26064        0.00389
H          0.29093       -2.28524        2.01056
H         -1.23261       -3.14427        2.39763
H         -0.03561       -3.93713        1.34504
H         -2.33159       -0.52627       -0.09260
H         -2.64879       -1.18760        1.54945
H         -1.13435       -0.32078        1.23451
H         -3.01202       -2.80009       -0.74788
H         -2.00929       -4.28388       -0.25150
H         -3.02471       -3.41320        0.87099
Na        -1.19144       -1.05082       -2.35303
Mg         3.96531       -0.20900       -2.11933
C          1.95270       -0.42068       -4.06624
C          3.54356        1.25746       -4.64435
O          3.19206        0.16802       -3.80180
C          2.14465       -1.50556       -5.11465
C          4.42298        0.75929       -5.79445
H          1.66044       -0.88249       -3.11165
H          1.13135        0.29343       -4.31456
H          2.67025        1.83697       -5.03965
H          4.13076        1.98722       -4.05292
H          3.82978        0.18151       -6.53031
H          4.88969        1.60543       -6.34498
H          5.22191        0.10476       -5.39094
H          3.14948       -1.97151       -4.99191
H          1.36923       -2.28539       -5.01014
H          2.07445       -1.06615       -6.13007
H          2.90799       -7.88436       -4.45894
C          1.34649       -6.97693       -5.70182
C          1.91167       -7.41718       -4.33542
C          2.13788       -5.86349       -6.37223
H          1.29011       -7.85748       -6.38056
H          0.31215       -6.60427       -5.57834
H          1.61064       -5.59953       -7.33352
H          2.17830       -4.96363       -5.74598
C          3.55703       -6.30755       -6.76008
H          1.23446       -8.21226       -3.95524
H          4.14861       -6.52815       -5.85092
H          3.51496       -7.21642       -7.40391
H          4.06083       -5.49849       -7.32470
C          6.99993       -0.52389       -2.62242
C          8.02905        0.16964       -2.01644
C          7.44039        1.00995       -1.07704
C          6.07478        0.76536       -1.14564
N          5.82816       -0.11531       -2.10270
C          4.90701        1.21154       -0.27527
N          3.92635        0.06076       -0.11626
C          4.43124       -1.03002        0.80241
H          9.08851        0.05476       -2.22537
H          7.10060       -1.28704       -3.38727
H          7.96961        1.68387       -0.41600
H          5.27932        1.64205        0.68011
H          4.40657        2.04800       -0.80699
C          4.73393       -0.51506        2.23570
C          3.31730       -2.06942        0.90851
C          5.69579       -1.77182        0.29832
H          3.84171       -0.04953        2.70045
H          5.05247       -1.36269        2.88504
H          5.57395        0.21179        2.26970
H          3.03474       -2.41604       -0.10238
H          3.63500       -2.93666        1.52266
H          2.43771       -1.62578        1.40961
H          5.53621       -2.19690       -0.71248
H          6.60257       -1.13707        0.32571
H          5.94105       -2.61992        0.97380
