95
speciation1176.ct
Na         4.63938       -0.87828        1.71641
Mg         2.27718        4.54371       -0.66371
C          6.05265       -3.42505        2.63766
C          6.13846       -3.62370        0.29576
O          5.49694       -3.01075        1.40082
C          7.49197       -2.94553        2.87204
C          5.52892       -3.15769       -1.01402
H          5.42360       -2.97421        3.43463
H          5.96252       -4.52522        2.77114
H          7.22186       -3.38587        0.24917
H          5.98955       -4.72547        0.35448
H          5.75492       -2.08375       -1.17753
H          5.97405       -3.74534       -1.84723
H          4.43147       -3.31625       -1.00845
H          7.56126       -1.84508        2.74280
H          7.80115       -3.20482        3.90663
H          8.20764       -3.44503        2.18831
H          3.61051        6.58813        0.53336
C          4.98791        6.47034       -1.12873
C          4.00209        5.81453       -0.15994
C          4.34084        7.58766       -1.94328
H          5.81657        6.91151       -0.52777
H          5.42128        5.69755       -1.80039
H          3.52490        7.16842       -2.56521
H          3.91381        8.35074       -1.25524
C          5.37230        8.26948       -2.84162
H          4.61569        5.11865        0.44773
H          6.17567        8.73294       -2.22695
H          5.82869        7.53477       -3.53791
H          4.88048        9.06866       -3.43439
C          3.30408        1.69318        3.24172
C          2.82879        2.98244        3.17516
C          2.99906        3.39238        1.87380
C          3.57236        2.32810        1.19750
N          3.76335        1.30014        2.03881
C          3.97165        2.27334       -0.24358
N          2.91832        2.66955       -1.18520
C          1.77447        1.74876       -1.39281
H          2.40202        3.55883        3.98442
H          3.31235        1.06897        4.12471
H          2.71342        4.35469        1.48930
H          4.81328        2.97721       -0.38269
H          4.36837        1.26304       -0.49531
C          0.91452        1.53989       -0.11989
C          0.95546        2.41261       -2.50530
C          2.22270        0.35874       -1.90110
H          0.74173        2.47209        0.42858
H         -0.06233        1.06910       -0.36501
H          1.42092        0.85681        0.59617
H          1.55989        2.46802       -3.43491
H          0.02277        1.85313       -2.72734
H          0.70519        3.44644       -2.22553
H          3.09300        0.44828       -2.57708
H          2.50431       -0.31422       -1.06247
H          1.40000       -0.14059       -2.45874
Na         4.21499        4.95027       -8.20953
Mg         4.01827        2.34075       -2.81065
H          0.60616        6.70671       -0.31040
C         -0.92577        5.30485       -0.91596
C          0.51144        5.86271       -1.02418
C         -1.24494        4.82105        0.50042
H         -1.65530        6.10180       -1.18421
H         -1.07498        4.47848       -1.63887
H         -0.50716        4.07205        0.81151
H         -1.18079        5.67230        1.20994
C         -2.63392        4.18946        0.58560
H          0.60811        6.30004       -2.03201
H         -3.41653        4.93112        0.32275
H         -2.70924        3.31911       -0.10217
H         -2.81485        3.83109        1.62164
C          2.53031        5.52165       -5.78836
C          2.31783        5.37296       -4.44070
C          3.32471        4.57175       -3.96541
C          4.10558        4.22595       -5.05348
N          3.61383        4.82768       -6.16191
C          5.35638        3.36871       -4.98363
N          5.11823        2.01195       -4.43610
C          6.35895        1.21749       -4.24302
H          1.51803        5.83752       -3.89225
H          1.92279        6.11159       -6.47427
H          3.44755        4.27748       -2.94300
H          6.05232        3.94167       -4.35281
H          5.75331        3.31286       -6.02489
C          7.28010        1.84707       -3.17301
C          5.95112       -0.18443       -3.76663
C          7.14471        1.06069       -5.56983
H          6.73547        1.96571       -2.21206
H          8.16555        1.19868       -2.99764
H          7.67542        2.83394       -3.48597
H          5.29621       -0.67653       -4.51790
H          6.84692       -0.82311       -3.61668
H          5.40592       -0.12436       -2.80344
H          6.49865        0.60965       -6.35336
H          7.52817        2.03309       -5.94180
H          8.03278        0.40623       -5.42662
