96
speciation1490.ct
Na         1.09169        2.89037       -1.54906
Mg         2.52589        2.24376        4.56546
C          2.91468        1.54373        7.33056
C          4.68304        2.85208        6.45656
O          3.65924        1.88555        6.17103
C          2.41281        2.71749        8.19779
C          5.87113        2.26104        7.23097
H          2.02325        0.98092        6.99691
H          3.49914        0.83789        7.96409
H          5.06079        3.29888        5.53352
H          4.31267        3.75218        6.96707
H          6.34211        1.42690        6.67036
H          6.63664        3.05082        7.39764
H          5.55292        1.89618        8.22959
H          1.85380        3.43757        7.58093
H          1.74523        2.33843        8.99515
H          3.24338        3.24584        8.71133
H          1.05448        4.48062        4.00095
C          2.44150        5.48662        5.18585
C          1.64322        4.22265        4.89268
C          3.31299        5.87841        3.99289
H          1.72011        6.31210        5.38619
H          3.05564        5.34858        6.09463
H          4.04901        5.07386        3.79237
H          2.67651        6.01780        3.08983
C          4.04817        7.18431        4.27111
H          0.93933        4.07867        5.73392
H          3.32057        8.01049        4.42247
H          4.68035        7.08312        5.17782
H          4.69576        7.43663        3.40480
C          5.16888        2.38598        3.12988
C          5.79618        2.72609        1.95347
C          4.79686        2.94514        1.05460
C          3.60942        2.66886        1.70348
N          3.82379        2.40890        3.00789
C          2.29178        2.61402        1.03941
N          2.47648        2.17436       -0.34785
C          2.84988        0.83776       -0.85582
H          6.85579        2.80697        1.77184
H          5.72387        2.14240        4.01864
H          4.92091        3.22423        0.01404
H          1.87820        3.64505        1.01474
H          1.57590        1.96616        1.58357
C          1.85808       -0.22292       -0.39788
C          2.79664        0.91909       -2.40353
C          4.27837        0.43614       -0.47654
H          0.82107        0.06943       -0.68500
H          2.09082       -1.19822       -0.86624
H          1.89976       -0.33920        0.70867
H          3.44600        1.73632       -2.77976
H          3.13629       -0.02952       -2.87380
H          1.76464        1.09850       -2.75717
H          5.01534        1.16922       -0.87727
H          4.39596        0.33512        0.61966
H          4.54334       -0.54348       -0.93298
Mg         3.12000        3.44413       -1.52954
C         -0.34925        1.15560        3.73311
C          1.23229       -0.45504        4.00209
O          0.96905        0.92126        4.25488
C         -0.87829        2.56016        3.91360
C          2.61279       -0.88044        4.43078
H         -0.42223        0.92174        2.64511
H         -1.07395        0.52363        4.30206
H          0.51800       -1.08948        4.58516
H          1.14409       -0.69313        2.91367
H          2.74825       -0.69564        5.51057
H          2.71320       -1.97532        4.24663
H          3.37552       -0.34254        3.83812
H         -0.36432        3.23592        3.21537
H         -1.95546        2.59707        3.63160
H         -0.80656        2.87087        4.97540
C          3.63542        6.17325       -2.32353
C          3.28344        7.04882       -3.32478
C          2.48779        6.34219       -4.21315
C          2.38867        5.06111       -3.71888
N          3.09000        4.97049       -2.57300
C          1.63121        3.92271       -4.37323
N          0.67589        3.26876       -3.46773
C         -0.72197        3.06174       -3.84394
H          3.56747        8.08632       -3.39521
H          4.24139        6.39631       -1.45183
H          2.03472        6.71839       -5.11124
H          1.15979        4.29310       -5.29806
H          2.38819        3.15315       -4.65992
C         -0.84007        2.38953       -5.23336
C         -1.35684        2.10039       -2.81056
C         -1.43279        4.41234       -3.77254
H         -0.35618        1.38928       -5.21408
H         -1.91088        2.25315       -5.49628
H         -0.37406        2.98242       -6.03807
H         -1.27827        2.50618       -1.77888
H         -2.43262        1.93362       -3.03445
H         -0.84636        1.11125       -2.82103
H         -1.34475        4.81742       -2.73874
H         -0.95935        5.13552       -4.46578
H         -2.50688        4.30864       -4.02680
