110
speciation2605.ct
Na         0.19754        0.96462       -0.99556
Mg         7.20002       -3.52836       -1.43504
C          6.43461       -6.00921       -2.50671
C          8.57584       -5.97996       -1.46489
O          7.62408       -5.26223       -2.23992
C          5.70355       -6.54396       -1.26535
C          9.19053       -7.18890       -2.17416
H          5.73415       -5.33611       -3.04207
H          6.63112       -6.83730       -3.22297
H          9.40542       -5.28432       -1.22979
H          8.15931       -6.31735       -0.50375
H          9.77034       -6.86996       -3.06327
H          9.87359       -7.70240       -1.46272
H          8.42170       -7.93006       -2.47196
H          5.50228       -5.71481       -0.55956
H          4.73649       -7.00127       -1.56140
H          6.28460       -7.34427       -0.76063
H          6.85100       -3.44034        1.42789
C          8.91551       -4.04674        1.53340
C          7.54469       -4.06098        0.82371
C          9.50996       -2.64253        1.64615
H          8.79145       -4.44503        2.56869
H          9.62475       -4.71721        1.00588
H          9.63261       -2.20761        0.63313
H          8.82443       -1.99806        2.24012
C         10.87182       -2.68661        2.34338
H          7.15461       -5.08876        0.95971
H         10.77860       -3.11848        3.36371
H         11.58269       -3.30495        1.75477
H         11.28611       -1.66170        2.43506
C         -2.75719       -0.09953       -1.56566
C         -3.21680       -1.38797       -1.76458
C         -2.12231       -2.22390       -1.65207
C         -1.04343       -1.40886       -1.37748
N         -1.43425       -0.12461       -1.33844
C          0.38268       -1.87636       -1.14221
N          1.31046       -0.78127       -0.73566
C          1.57324       -0.72799        0.74515
H         -4.23571       -1.68478       -1.97057
H         -3.35084        0.80320       -1.59223
H         -2.11571       -3.30226       -1.74746
H          0.76300       -2.34274       -2.07028
H          0.32932       -2.67548       -0.37380
C          2.25679       -2.02535        1.29984
C          2.46914        0.49634        1.00607
C          0.27472       -0.50387        1.57254
H          2.25468       -2.86682        0.57980
H          3.29887       -1.84876        1.63799
H          1.73208       -2.41189        2.20357
H          1.92339        1.43679        0.77234
H          2.80343        0.54403        2.06489
H          3.36176        0.45828        0.35601
H         -0.25430        0.42496        1.27767
H         -0.42504       -1.36003        1.48691
H          0.53246       -0.40195        2.65381
Na         2.81022       -0.50104       -2.48440
Mg         8.56308       -0.45099       -2.41652
C          9.65696       -1.46927       -4.64028
C         11.33362       -1.52420       -2.95925
O         10.15661       -0.88212       -3.44302
C          9.53812       -3.00948       -4.66310
C         12.55104       -1.18203       -3.83831
H          8.64211       -1.06394       -4.75155
H         10.20804       -1.10201       -5.52918
H         11.55490       -1.18655       -1.92598
H         11.21293       -2.62183       -2.87358
H         12.85860       -0.12772       -3.67765
H         13.40313       -1.84980       -3.59336
H         12.33892       -1.31924       -4.91890
H          9.01772       -3.37851       -3.75373
H          8.96304       -3.32580       -5.55874
H         10.53267       -3.49700       -4.74050
H          9.99084        1.91598       -1.82800
C          9.76298        1.70067        0.29783
C          9.24767        1.44654       -1.15019
C         11.10404        1.02123        0.59675
H          9.89586        2.80049        0.44990
H          9.00593        1.35848        1.03687
H         10.96757       -0.07106        0.48739
H         11.88126        1.36709       -0.11979
C         11.59591        1.32427        2.02047
H          8.32714        2.06794       -1.22606
H         12.50251        0.71963        2.23988
H         10.81877        1.06943        2.77238
H         11.86297        2.39839        2.13280
C          4.30237        0.78431       -5.10008
C          5.34832        0.77399       -5.99832
C          6.11569       -0.32304       -5.68871
C          5.54190       -0.90411       -4.56481
N          4.37688       -0.26912       -4.25525
C          6.16517       -2.04681       -3.77278
N          6.78692       -1.66278       -2.44361
C          5.85389       -1.03777       -1.47916
H          5.54998        1.50561       -6.77326
H          3.54385        1.55552       -5.04648
H          7.02593       -0.60998       -6.19831
H          5.41810       -2.86240       -3.67967
H          6.94539       -2.51105       -4.39852
C          4.67745       -2.02343       -1.24723
C          6.66464       -0.82903       -0.20982
C          5.42681        0.44000       -1.81202
H          5.05734       -3.03567       -0.98143
H          4.00115       -1.67133       -0.47440
H          4.06040       -2.18382       -2.15597
H          7.47487       -0.12261       -0.43958
H          6.04594       -0.38365        0.59853
H          7.14439       -1.73445        0.13656
H          6.24472        0.97406       -2.33779
H          5.16890        1.01121       -0.90204
H          4.48884        0.65232       -2.30502
