110
speciation2522.ct
Na         6.66963        0.42379       -3.82593
Mg         4.23754       -4.95295        0.92161
C          5.86080       -6.15817       -1.35784
C          6.91570       -6.09093        0.72593
O          5.84181       -5.58676       -0.06330
C          7.04697       -5.69046       -2.21413
C          6.99978       -5.41462        2.08098
H          5.78319       -7.26778       -1.32317
H          5.00936       -5.74990       -1.89947
H          6.79799       -7.18275        0.88466
H          7.90238       -5.86159        0.26952
H          6.04158       -5.50824        2.61861
H          7.79840       -5.88497        2.69197
H          7.27874       -4.35165        1.95164
H          8.01392       -6.09279       -1.85439
H          6.91460       -6.04958       -3.25608
H          7.09081       -4.58187       -2.22639
H          2.65609       -6.31310        2.85451
C          4.32022       -7.37185        3.55147
C          3.57264       -6.68727        2.38842
C          3.48993       -8.37292        4.41875
H          5.24089       -7.87149        3.18377
H          4.61543       -6.55855        4.24954
H          4.12199       -8.65668        5.28974
H          2.57897       -7.87545        4.81980
C          3.06959       -9.68924        3.75404
H          3.27759       -7.48085        1.66650
H          2.34067       -9.52521        2.93604
H          3.95164      -10.24406        3.37268
H          2.57719      -10.33736        4.51705
C          9.36353        1.11051       -2.31669
C         10.51926        0.36563       -2.20082
C         10.31071       -0.81916       -2.88784
C          9.02056       -0.73951       -3.40175
N          8.46529        0.42610       -3.05013
C          8.31499       -1.80721       -4.24587
N          6.92084       -1.43980       -4.67960
C          6.74476       -1.13699       -6.12334
H         11.42073        0.65577       -1.67172
H          9.19400        2.09255       -1.89968
H         11.01209       -1.62792       -2.99813
H          8.26973       -2.75082       -3.66803
H          8.97678       -1.99449       -5.11248
C          7.09467       -2.35050       -7.01825
C          5.27266       -0.77544       -6.32121
C          7.58307        0.08667       -6.56071
H          6.57406       -3.26373       -6.66832
H          6.79924       -2.15578       -8.07240
H          8.18475       -2.55744       -7.03723
H          4.97941        0.06261       -5.65501
H          5.05608       -0.50149       -7.37473
H          4.65453       -1.63541       -6.06674
H          7.33647        0.97955       -5.94935
H          8.67242       -0.10394       -6.47959
H          7.36510        0.34092       -7.62249
Na         4.02532       -3.67372       -1.19654
Mg         5.27094       -2.25198       -3.68563
C          1.47568       -3.82895        0.70885
C          1.68211       -5.66247       -0.70114
O          2.41483       -4.65472        0.01056
C          0.54143       -4.51593        1.71892
C          2.55794       -6.46251       -1.62645
H          2.03762       -3.09806        1.31136
H          0.84878       -3.25178       -0.02129
H          1.19613       -6.38688       -0.01824
H          0.92212       -5.18876       -1.36032
H          3.31990       -6.99086       -1.01858
H          1.95395       -7.21820       -2.16703
H          2.99072       -5.78272       -2.38736
H          1.12268       -5.00097        2.51037
H         -0.09369       -3.75526        2.22386
H         -0.15143       -5.25223        1.25594
H          2.98565       -3.94936       -3.95416
C          3.52843       -4.18831       -6.02639
C          3.46410       -3.33674       -4.74517
C          4.41150       -5.41531       -5.84538
H          2.49834       -4.52214       -6.29721
H          3.90335       -3.57470       -6.87230
H          5.42842       -5.08459       -5.55403
H          3.99138       -6.05918       -5.04347
C          4.50194       -6.22290       -7.14271
H          2.72434       -2.55150       -5.01346
H          3.50183       -6.59953       -7.44548
H          4.91517       -5.59524       -7.96077
H          5.17713       -7.09031       -6.98701
C          5.38869       -2.79917        2.71854
C          6.12367       -1.64799        2.88554
C          6.33629       -1.13049        1.63550
C          5.75145       -1.99051        0.73319
N          5.14889       -3.05720        1.40805
C          5.95645       -1.76023       -0.78793
N          4.78213       -1.82872       -1.68787
C          3.75750       -0.74443       -1.59959
H          6.51162       -1.24220        3.81463
H          5.10768       -3.45596        3.52909
H          6.92598       -0.24684        1.41049
H          6.66524       -2.54130       -1.11910
H          6.48934       -0.79479       -0.95004
C          4.29040        0.64228       -2.00993
C          2.64226       -1.11881       -2.57635
C          3.14450       -0.62922       -0.20180
H          4.66767        0.63021       -3.04785
H          3.46125        1.38745       -1.98318
H          5.08166        1.00552       -1.32329
H          2.27494       -2.14932       -2.37308
H          1.78360       -0.41893       -2.52843
H          3.05532       -1.04903       -3.59634
H          2.77393       -1.61026        0.08729
H          3.87063       -0.26289        0.54959
H          2.29050        0.08171       -0.20222
