110
speciation2249.ct
Na         6.18154       -2.33452       -3.70286
Mg         2.72509       -3.81202        2.06844
C          7.74328       -3.28461       -6.24843
C          8.51084       -4.63388       -4.54647
O          7.67359       -3.51760       -4.85295
C          6.96158       -2.03818       -6.61269
C          8.59838       -4.88301       -3.06002
H          8.79887       -3.09896       -6.56169
H          7.32153       -4.14376       -6.82043
H          8.13172       -5.56936       -5.02267
H          9.55845       -4.43994       -4.87760
H          7.61550       -5.24387       -2.72715
H          9.33149       -5.68936       -2.83665
H          8.91546       -3.95507       -2.53760
H          7.35537       -1.16782       -6.04749
H          7.07151       -1.83919       -7.70079
H          5.88833       -2.18625       -6.37878
H          4.31160       -5.73329        3.51242
C          2.37084       -6.05470        4.37676
C          3.42863       -5.11713        3.79186
C          1.86579       -7.03899        3.32399
H          2.79405       -6.62253        5.23872
H          1.52946       -5.44136        4.75358
H          1.47461       -6.46609        2.45726
H          2.70205       -7.68757        2.97915
C          0.74955       -7.91817        3.88796
H          3.77845       -4.47429        4.62950
H          1.12721       -8.54631        4.72329
H         -0.08648       -7.28831        4.26141
H          0.36011       -8.58499        3.09050
C          4.66524        0.71845        1.10220
C          5.13239        1.99441        0.84438
C          5.39314        2.05392       -0.50931
C          5.06639        0.81550       -1.01403
N          4.63232        0.00752       -0.03968
C          5.16694        0.39501       -2.44397
N          4.60609       -0.95684       -2.64431
C          3.25075       -0.95731       -3.26800
H          5.26472        2.79408        1.56031
H          4.36561        0.33470        2.06782
H          5.76398        2.90313       -1.06783
H          6.23638        0.39417       -2.73575
H          4.65459        1.15585       -3.05980
C          3.20066       -0.37470       -4.68273
C          2.89189       -2.40327       -3.38853
C          2.18618       -0.25085       -2.36105
H          3.96103       -0.86604       -5.32075
H          2.19007       -0.56267       -5.11546
H          3.33840        0.72123       -4.68564
H          2.84333       -2.63568       -2.36192
H          1.91248       -2.60636       -3.87126
H          3.70279       -3.01571       -3.83636
H          2.21276       -0.64232       -1.32422
H          2.33616        0.84396       -2.28130
H          1.15566       -0.43075       -2.74354
Na         4.09694       -1.89384       -0.65887
Mg         0.69583       -5.46900       -3.30865
C          1.48726       -1.56449        3.44622
C         -0.01964       -3.37703        3.11666
O          1.14334       -2.70176        2.65170
C          1.69121       -1.89067        4.92764
C         -1.31071       -2.53373        3.01273
H          2.42441       -1.14391        3.03375
H          0.76632       -0.72379        3.33274
H         -0.17537       -4.29323        2.50956
H          0.12653       -3.73361        4.14964
H         -1.66878       -2.48341        1.96404
H         -2.09832       -2.99173        3.64752
H         -1.20422       -1.49741        3.38542
H          2.33017       -2.78612        5.01182
H          2.16826       -1.03969        5.45139
H          0.71933       -2.08566        5.43154
H          1.76740       -6.94720       -5.23964
C         -0.30859       -6.72297       -5.79355
C          0.75899       -6.93561       -4.73171
C         -1.69700       -6.65280       -5.14888
H         -0.10867       -5.77206       -6.33609
H         -0.26747       -7.56279       -6.51995
H         -1.89805       -7.58730       -4.58163
H         -1.72985       -5.79209       -4.44586
C         -2.79254       -6.47597       -6.19946
H          0.61201       -7.89470       -4.20675
H         -2.61692       -5.55617       -6.79700
H         -2.82142       -7.35321       -6.88111
H         -3.77909       -6.38830       -5.69665
C         -0.47167       -3.22913       -1.78781
C         -0.20419       -2.35234       -0.76319
C          1.03028       -2.71264       -0.25832
C          1.45810       -3.82094       -0.97159
N          0.52363       -4.10895       -1.92788
C          2.80170       -4.54340       -0.85239
N          3.68843       -3.90995        0.15398
C          5.11182       -4.38700        0.12663
H         -0.81301       -1.50987       -0.45422
H         -1.34216       -3.19711       -2.43488
H          1.57325       -2.18384        0.49976
H          3.31009       -4.53493       -1.83757
H          2.62892       -5.61132       -0.64712
C          5.87467       -3.97255       -1.15962
C          5.83377       -3.70403        1.29303
C          5.24662       -5.92355        0.23369
H          5.88267       -2.88747       -1.35898
H          6.94360       -4.22913       -1.00564
H          5.52614       -4.51209       -2.06606
H          5.36819       -3.98989        2.25213
H          6.90978       -3.98300        1.32428
H          5.76317       -2.59930        1.18108
H          4.84241       -6.30482        1.18720
H          4.73636       -6.42669       -0.61626
H          6.31753       -6.22248        0.15613
