83
speciation716.ct
Na         1.74298        0.04220       -1.02487
Mg         2.35066       -0.09069        1.23076
C          5.02595       -0.35980        0.89519
C          5.34045       -1.24153        2.89110
O          4.36655       -0.49839        2.11108
C          5.44013       -1.69892        0.15096
C          5.13954       -1.35225        4.37158
H          4.27009        0.24403        0.44264
H          5.90422        0.30358        0.96449
H          5.43611       -2.29400        2.56801
H          6.34187       -0.73804        2.82006
H          4.25725       -1.99146        4.57607
H          6.04681       -1.84486        4.78334
H          5.09707       -0.35395        4.83943
H          4.46327       -1.99868        0.14800
H          5.10133       -2.36931       -0.67073
H          6.12569       -2.39647        0.64825
C          5.26861        1.03866       -1.64434
C          6.24131        0.15729       -2.11827
C          5.57950       -0.96759       -2.54606
C          4.25233       -0.76577       -2.17394
N          4.02703        0.41773       -1.67580
C          2.97403       -1.58363       -2.02366
N          2.42567       -1.61758       -0.53688
C          2.13515       -2.92640        0.16788
H          7.33753        0.25701       -2.02522
H          5.52745        1.93208       -1.07509
H          6.04012       -1.89027       -2.88453
H          2.89420       -2.48639       -2.65209
H          2.27062       -0.97855       -2.66102
C          3.03698       -3.32831        1.37594
C          0.79621       -2.77161        0.86290
C          2.06365       -4.07256       -0.80851
H          3.01734       -2.50873        2.15884
H          2.67948       -4.22165        1.86777
H          4.07403       -3.62349        1.17045
H         -0.02145       -2.83935        0.18321
H          0.60634       -3.58329        1.60944
H          0.82913       -1.77170        1.33229
H          1.23360       -3.86390       -1.55859
H          3.02643       -4.12380       -1.36250
H          1.88559       -5.02054       -0.31524
Na         2.72394        2.34017       -1.85839
C          1.33255        0.82577        4.18604
C          0.69371       -1.36335        3.85117
O          0.97827       -0.13591        3.12752
C          2.60709        0.47675        4.88846
C         -0.45219       -1.29741        4.90773
H          1.56749        1.84617        3.93783
H          0.49146        1.13942        4.82557
H          0.31524       -2.17541        3.23634
H          1.62565       -1.76884        4.28578
H         -1.44428       -1.40040        4.42011
H         -0.30788       -2.13250        5.62356
H         -0.51511       -0.41481        5.56319
H          3.21429        0.12904        4.05645
H          3.10377        1.35947        5.34317
H          2.45374       -0.30453        5.65655
C         -1.53855       -0.83476       -0.12566
C         -2.54317        0.02297        0.21808
C         -2.01384        1.27886        0.12226
C         -0.70027        1.09293       -0.27353
N         -0.38248       -0.15480       -0.41131
C          0.31698        2.06845       -0.68986
N          1.68209        1.93705       -0.03142
C          1.97232        3.12147        0.77224
H         -3.55864       -0.26742        0.46076
H         -1.71041       -1.89196       -0.19035
H         -2.55192        2.20432        0.26128
H         -0.19009        3.03348       -0.64144
H          0.44771        1.85360       -1.76867
C          1.03387        3.03137        1.92622
C          3.43550        3.01013        1.23020
C          1.80434        4.47420        0.03002
H          1.16669        1.97915        2.11833
H          1.28035        3.73565        2.74202
H         -0.04414        3.05880        1.68847
H          4.10991        3.05316        0.34915
H          3.69657        3.84143        1.91432
H          3.61700        2.05358        1.76051
H          2.46542        4.50758       -0.85797
H          0.78299        4.71897       -0.30690
H          2.05038        5.30097        0.72085
