96
speciation1075.ct
Na         1.21013        0.00570        0.14887
Mg        -1.52464       -0.62723       -4.75315
C          2.68377        1.46513       -2.18888
C          1.01266        2.88988       -1.25160
O          1.52059        1.56499       -1.36852
C          3.81454        2.47094       -1.88750
C          0.44829        3.45104       -2.57345
H          3.10546        0.45467       -2.03211
H          2.40339        1.51728       -3.26386
H          0.17877        2.88567       -0.52763
H          1.76513        3.59265       -0.82831
H         -0.40932        2.83364       -2.91768
H          0.09349        4.49290       -2.42131
H          1.21513        3.48173       -3.37356
H          4.10752        2.41936       -0.81930
H          4.70094        2.23279       -2.51330
H          3.52389        3.51290       -2.14488
H         -3.32577       -0.02377       -2.85269
C         -4.35533        0.88826       -4.45227
C         -3.04047        0.52568       -3.76898
C         -5.16981       -0.36020       -4.81418
H         -4.95021        1.50432       -3.74083
H         -4.14827        1.49277       -5.35912
H         -4.60142       -0.98303       -5.53233
H         -5.36762       -0.96539       -3.90151
C         -6.51013        0.02613       -5.43771
H         -2.52270        1.45772       -3.46272
H         -7.11618        0.61600       -4.71650
H         -6.34961        0.62873       -6.35683
H         -7.07642       -0.89070       -5.70699
C          0.30151       -3.08596        0.75031
C         -0.50641       -4.15603        0.44175
C         -1.21989       -3.78551       -0.66398
C         -0.78921       -2.51518       -1.01168
N          0.13683       -2.05345       -0.12105
C         -1.34044       -1.76659       -2.18462
N         -0.40092       -1.54188       -3.31350
C          0.16319       -2.73137       -4.01841
H         -0.58109       -5.09845        0.96740
H          0.98712       -3.07963        1.57823
H         -1.95956       -4.38562       -1.18018
H         -2.23914       -2.29739       -2.57693
H         -1.66560       -0.79670       -1.78426
C         -0.95785       -3.59784       -4.63424
C          1.05878       -2.21536       -5.15590
C          1.07823       -3.59305       -3.12015
H         -1.59243       -2.98695       -5.31203
H         -0.52900       -4.43922       -5.22077
H         -1.60621       -4.04270       -3.85136
H          1.89090       -1.59817       -4.75519
H          1.49165       -3.06089       -5.73462
H          0.48989       -1.60591       -5.86702
H          1.81800       -2.95202       -2.59441
H          0.52106       -4.19357       -2.38957
H          1.63215       -4.34178       -3.72686
Mg         1.09076       -0.50908       -2.63137
C         -0.38471        0.90628       -6.91906
C         -2.32645       -0.39103       -7.45640
O         -1.20243       -0.21878       -6.61341
C         -1.12043        2.24828       -6.97581
C         -1.94008       -0.75524       -8.89406
H          0.38825        0.97775       -6.12613
H          0.18628        0.73225       -7.85922
H         -2.89359       -1.25749       -7.06284
H         -3.01104        0.47870       -7.41953
H         -1.32496       -1.68029       -8.90609
H         -2.86240       -0.93227       -9.48648
H         -1.37698        0.06439       -9.38491
H         -1.67480        2.41561       -6.03020
H         -0.38383        3.06800       -7.11539
H         -1.81737        2.28976       -7.83891
C          1.94762       -0.69124        3.18921
C          2.44699       -0.28349        4.40949
C          2.81762        1.02261        4.25727
C          2.51393        1.36098        2.95146
N          1.98929        0.30432        2.27581
C          2.69815        2.73675        2.40315
N          1.43215        3.29223        1.90608
C          0.35191        3.62081        2.87265
H          2.51342       -0.87335        5.31472
H          1.56310       -1.67077        3.00726
H          3.23152        1.66749        5.02554
H          3.15677        3.41409        3.15741
H          3.41342        2.67507        1.55981
C          0.82665        4.59166        3.97436
C         -0.75830        4.30783        2.06249
C         -0.26520        2.35926        3.51397
H          1.22892        5.52607        3.52778
H         -0.02168        4.86155        4.64192
H          1.61055        4.13519        4.61369
H         -1.12039        3.63337        1.25771
H         -1.62391        4.56231        2.71103
H         -0.38053        5.24068        1.59482
H         -0.54193        1.62234        2.72968
H          0.40854        1.88388        4.24440
H         -1.17532        2.62040        4.09400
