96
speciation1629.ct
Na         2.23364        0.05285        0.94266
Mg         3.61892        1.06407        3.75076
C          1.27054        1.92371        4.69324
C          1.65650       -0.35240        5.24969
O          1.78377        0.67060        4.26129
C          1.93313        2.47354        5.96239
C          0.20406       -0.73874        5.57573
H          1.48029        2.65036        3.88654
H          0.16348        1.90605        4.78106
H          2.13362       -1.27164        4.85116
H          2.18872       -0.09659        6.18602
H         -0.31344       -1.11606        4.66989
H          0.20757       -1.54206        6.34305
H         -0.36410        0.11237        6.00230
H          3.03727        2.45663        5.84834
H          1.59968        3.51826        6.13023
H          1.63784        1.89162        6.85898
H          4.31676       -0.62157        5.67501
C          6.25959       -0.06437        4.99251
C          4.80055       -0.39235        4.70607
C          6.39529        1.17026        5.89030
H          6.71555       -0.94086        5.50501
H          6.79116        0.10345        4.03258
H          5.95701        2.05374        5.38148
H          5.84920        1.01330        6.84612
C          7.86431        1.44492        6.20585
H          4.74642       -1.29984        4.06925
H          8.30143        0.59047        6.76669
H          8.44101        1.59545        5.26834
H          7.95187        2.35904        6.82943
C          5.81613        2.75164        2.45266
C          6.05846        3.63093        1.41548
C          4.89224        3.74017        0.71909
C          3.99326        2.89519        1.33226
N          4.53333        2.30961        2.42271
C          2.59787        2.72527        0.87438
N          2.43760        1.69946       -0.16670
C          3.07710        1.72519       -1.54376
H          6.98060        4.14818        1.18560
H          6.54611        2.46766        3.18973
H          4.71027        4.36196       -0.15187
H          2.23044        3.70864        0.62460
H          1.99242        2.37952        1.73121
C          4.61910        1.60112       -1.55674
C          2.54133        0.52049       -2.35440
C          2.68269        2.96968       -2.34815
H          5.00116        0.81959       -0.88760
H          4.97202        1.37222       -2.58756
H          5.13681        2.53148       -1.32442
H          1.43420        0.50648       -2.40777
H          2.92721        0.52260       -3.40114
H          2.88936       -0.39174       -1.90066
H          1.60374        2.99709       -2.54900
H          3.00547        3.89383       -1.83421
H          3.15922        2.94072       -3.35457
Mg         0.66000        0.87044       -0.56601
C         -0.10448        4.10901       -0.85059
C         -1.67669        2.57932       -1.67715
O         -0.31375        2.72170       -1.29322
C         -0.89915        4.61996        0.37610
C         -2.13700        3.48626       -2.83998
H          0.94561        4.31295       -0.71586
H         -0.25799        4.82268       -1.68374
H         -1.82084        1.54099       -2.00141
H         -2.35996        2.76007       -0.82047
H         -1.50622        3.31989       -3.73610
H         -3.19388        3.25702       -3.08166
H         -2.13556        4.56794       -2.58327
H         -0.70689        4.00369        1.27773
H         -0.59333        5.66790        0.60403
H         -1.99122        4.66838        0.18086
C         -2.18444        0.43811        0.71088
C         -2.90265       -0.72667        0.91734
C         -2.08955       -1.76845        0.52086
C         -0.93992       -1.18487        0.05943
N         -0.97749        0.15288        0.17900
C          0.19424       -1.92029       -0.59009
N          1.49343       -1.35710       -0.21783
C          2.59621       -2.41151       -0.21114
H         -3.91481       -0.81188        1.29039
H         -2.56327        1.42980        0.89745
H         -2.33671       -2.81981        0.51808
H          0.07569       -2.99625       -0.38885
H          0.09461       -1.78238       -1.68708
C          2.77290       -3.12161       -1.57829
C          3.97515       -1.81998        0.20347
C          2.35157       -3.51819        0.87233
H          3.07838       -2.42987       -2.38770
H          3.57228       -3.89177       -1.51715
H          1.84362       -3.63072       -1.88911
H          3.94683       -1.36005        1.21754
H          4.75960       -2.61247        0.24355
H          4.34209       -1.09742       -0.51666
H          2.31334       -3.07735        1.89070
H          1.45105       -4.12597        0.71255
H          3.19623       -4.25113        0.86757
