66
speciation185.ct
Na         1.31957        0.02081        0.06467
Mg         6.76294       -2.79020       -2.51548
H          9.19141       -2.30932       -1.69695
C          9.29373       -1.81028       -3.82006
C          8.79386       -2.67337       -2.66816
C          8.81906       -0.36221       -3.68982
H         10.40562       -1.84077       -3.82766
H          8.91787       -2.23955       -4.77449
H          7.70879       -0.33196       -3.69662
H          9.18361        0.06893       -2.73237
C          9.35139        0.48329       -4.84527
H          9.14848       -3.71411       -2.82367
H         10.46284        0.48852       -4.83992
H          8.99623        0.07863       -5.81803
H          8.99167        1.52871       -4.74284
C          1.89721        1.53264       -3.69877
C          2.59502        2.71865       -3.72849
C          3.38988        2.75157       -2.59869
C          3.18827        1.63257       -1.90971
N          2.24200        0.79992       -2.54381
C          3.87448        1.32903       -0.60472
N          3.45514        0.03737       -0.03679
C          3.98575       -0.22784        1.32569
H          2.52422        3.47671       -4.49367
H          1.17975        1.20824       -4.44271
H          4.06302        3.55402       -2.31872
H          3.60747        2.16466        0.06747
H          4.96903        1.33244       -0.79676
C          3.50926        0.81844        2.36028
C          3.44438       -1.59033        1.76159
C          5.53158       -0.28579        1.32285
H          2.39984        0.87331        2.37552
H          3.85927        0.53960        3.37816
H          3.91683        1.82897        2.16048
H          3.73541       -2.34439        1.01694
H          3.84352       -1.88298        2.75790
H          2.33533       -1.57963        1.81164
H          5.89369       -1.03687        0.59026
H          5.97840        0.69800        1.07049
H          5.91452       -0.56108        2.32940
Mg         4.11847       -1.43340       -1.20167
C          6.72353       -3.92918        1.32029
C          5.60425       -4.52966        1.85335
C          4.68808       -4.67565        0.82758
C          5.22896       -4.17581       -0.29029
N          6.53382       -3.69962       -0.05336
C          4.55583       -4.17051       -1.63388
N          4.78180       -2.90417       -2.36654
C          4.12299       -2.85024       -3.70011
H          5.47721       -4.82968        2.88576
H          7.61935       -3.67235        1.86929
H          3.70668       -5.12377        0.91468
H          3.47593       -4.38028       -1.48849
H          5.01800       -5.00589       -2.19161
C          2.58440       -2.80262       -3.55712
C          4.58332       -1.56128       -4.39785
C          4.51550       -4.04641       -4.60196
H          2.27683       -1.94001       -2.93047
H          2.10429       -2.70044       -4.55492
H          2.17706       -3.72895       -3.10508
H          5.68309       -1.57149       -4.54322
H          4.10176       -1.46278       -5.39739
H          4.31556       -0.66987       -3.79296
H          5.61776       -4.09753       -4.72887
H          4.15367       -5.01270       -4.19355
H          4.05047       -3.94376       -5.60670
