83
speciation454.ct
Na         1.03661       -0.01751       -0.26561
Mg         1.29052       -1.68862       -4.74170
C          0.05807       -2.04374        2.25897
C         -1.36471       -0.32416        1.80776
O         -0.07904       -0.83924        1.50553
C          1.43676       -2.65205        2.17930
C         -1.59080        0.97186        1.09879
H         -0.09296       -1.83503        3.34598
H         -0.67450       -2.81168        1.91739
H         -2.16831       -1.03060        1.49451
H         -1.44709       -0.09010        2.89583
H         -1.55376        0.78311        0.01020
H         -2.58838        1.38146        1.36538
H         -0.80418        1.68074        1.42734
H          2.19733       -1.93075        2.53321
H          1.47068       -3.55056        2.83603
H          1.62653       -2.97792        1.14893
C         -0.44297       -3.26838       -2.94011
C         -1.44149       -3.19592       -1.98983
C         -1.75713       -1.86605       -1.85168
C         -0.92513       -1.17137       -2.70795
N         -0.12669       -2.03675       -3.38876
C         -0.97260        0.33539       -2.85614
N          0.19662        1.04768       -2.27051
C          0.04291        2.56329       -2.37005
H         -1.88521       -4.01967       -1.44850
H          0.04106       -4.17479       -3.27871
H         -2.50201       -1.44485       -1.18865
H         -1.89036        0.67226       -2.33940
H         -1.09239        0.55348       -3.93520
C         -0.97788        3.09576       -1.35105
C          1.39751        3.22616       -2.06364
C         -0.40511        3.08218       -3.77250
H         -0.62997        2.87093       -0.33824
H         -1.06542        4.20227       -1.41085
H         -1.99590        2.68769       -1.51825
H          2.14820        2.96608       -2.83911
H          1.29127        4.33745       -2.05690
H          1.77321        2.91117       -1.06945
H          0.32604        2.82906       -4.56822
H         -1.41255        2.72201       -4.06829
H         -0.49327        4.19522       -3.75775
Na         6.25255       -0.57848        3.60485
C          2.48962       -0.67069       -7.29506
C          3.28364       -2.60233       -6.34768
O          2.67212       -1.34923       -6.06064
C          1.74821        0.64101       -7.13217
C          3.58338       -3.39117       -5.07906
H          3.49533       -0.40745       -7.70128
H          1.94653       -1.29352       -8.04442
H          2.61926       -3.22927       -6.98325
H          4.26780       -2.45089       -6.85070
H          2.65042       -3.57786       -4.50597
H          4.03247       -4.37041       -5.34970
H          4.32590       -2.85595       -4.45326
H          2.24308        1.27282       -6.36686
H          1.77234        1.17950       -8.10686
H          0.69165        0.45350       -6.85553
C          3.96132        1.59686        4.06669
C          2.87747        2.14582        3.41859
C          2.78937        1.52204        2.18820
C          3.82282        0.61239        2.15438
N          4.53987        0.66580        3.29106
C          4.19736       -0.32555        1.06091
N          3.35332       -0.22139       -0.14969
C          3.84833       -1.08122       -1.25970
H          2.22901        2.92102        3.80203
H          4.32413        1.85699        5.05278
H          2.05064        1.71183        1.41897
H          4.15683       -1.34263        1.48896
H          5.24910       -0.07545        0.82059
C          3.88105       -2.58069       -0.87210
C          2.86562       -0.88422       -2.40290
C          5.26561       -0.68058       -1.74698
H          2.88945       -2.91969       -0.53814
H          4.16906       -3.20862       -1.74138
H          4.62623       -2.79153       -0.07691
H          2.84453        0.17938       -2.71607
H          3.13876       -1.49489       -3.26998
H          1.85892       -1.19049       -2.06814
H          5.30163        0.38887       -2.03901
H          6.05116       -0.87165       -0.98617
H          5.55434       -1.29538       -2.62790
