96
speciation1115.ct
Na         2.17286        1.26900       -2.49550
Mg         4.91789        0.13851       -5.39188
C          1.08613       -0.71496        0.55107
C         -0.68792       -0.86745       -0.86758
O          0.71378       -0.46796       -0.85919
C          0.88823       -2.17827        1.15192
C         -1.40040       -0.82678       -2.18934
H          2.14878       -0.48749        0.70849
H          0.51585       -0.04224        1.24371
H         -0.79939       -1.95382       -0.63197
H         -1.30017       -0.29205       -0.12563
H         -0.90692       -1.51892       -2.89983
H         -2.44463       -1.20225       -2.02243
H         -1.44963        0.20929       -2.55637
H          1.42120       -2.96120        0.57356
H          1.25885       -2.23947        2.20332
H         -0.17389       -2.50925        1.27317
H          4.54931        1.49609       -7.82340
C          4.25647       -0.38598       -8.58616
C          4.97390        0.50379       -7.58690
C          2.74599       -0.39834       -8.32653
H          4.44052        0.03228       -9.60402
H          4.67189       -1.41089       -8.53916
H          2.54791       -0.82788       -7.32353
H          2.33634        0.63735       -8.35375
C          2.02866       -1.22558       -9.38729
H          6.05169        0.55424       -7.84170
H          2.17592       -0.77071      -10.39100
H          2.42506       -2.26250       -9.39515
H          0.94093       -1.25553       -9.16831
C          3.45106        5.29550       -3.61853
C          4.20560        5.98960       -4.54958
C          4.58796        5.08373       -5.47022
C          4.07999        3.88970       -5.02693
N          3.33258        3.91494       -3.89630
C          4.48430        2.70241       -5.58813
N          5.12721        2.04955       -4.49806
C          6.54748        2.22044       -4.10142
H          4.54848        7.02984       -4.53060
H          3.08502        5.87367       -2.83035
H          5.26193        5.25098       -6.30212
H          5.17483        2.86667       -6.43042
H          3.55535        2.15472       -5.85923
C          6.82906        3.61961       -3.52134
C          6.79610        1.20286       -2.97633
C          7.52059        1.91885       -5.25204
H          6.11457        3.85588       -2.70290
H          7.85789        3.66293       -3.09971
H          6.77676        4.39945       -4.30077
H          6.60505        0.16953       -3.32533
H          7.83327        1.26087       -2.58334
H          6.10645        1.40440       -2.14014
H          7.36455        0.88969       -5.63748
H          7.40005        2.64284       -6.08201
H          8.56992        1.99487       -4.88766
Mg         4.02725        2.37835       -2.87261
C          6.43702       -2.32574       -4.97511
C          4.11777       -2.68082       -5.39044
O          5.11551       -1.78325       -4.90668
C          6.85842       -2.90814       -6.33680
C          3.93343       -3.92521       -4.49770
H          7.14734       -1.51128       -4.74323
H          6.59117       -3.07950       -4.17110
H          3.14478       -2.15072       -5.39455
H          4.29962       -2.97612       -6.44311
H          3.57165       -3.63609       -3.48839
H          3.18419       -4.60570       -4.95618
H          4.86963       -4.51201       -4.38720
H          6.72147       -2.15241       -7.13515
H          7.92780       -3.20549       -6.30045
H          6.29110       -3.82998       -6.58725
C          4.37884       -1.06097       -0.97710
C          5.33704       -0.92321        0.02594
C          5.29770        0.38404        0.42471
C          4.32560        0.97510       -0.34426
N          3.77291        0.13200       -1.23273
C          3.91301        2.37239       -0.20775
N          2.92730        2.70715       -1.24715
C          2.21464        3.99250       -0.89378
H          5.99298       -1.67802        0.44432
H          4.15485       -1.99367       -1.47528
H          5.90079        0.86105        1.19091
H          3.50262        2.46466        0.81552
H          4.81214        3.01415       -0.30835
C          3.25882        5.12203       -0.61256
C          1.11359        4.27899       -1.97128
C          1.37028        3.94830        0.41193
H          4.16600        5.02899       -1.24323
H          2.79774        6.13098       -0.67106
H          3.68577        5.04264        0.41029
H          0.31762        3.50862       -1.90214
H          0.65988        5.28034       -1.82342
H          1.33315        4.22880       -3.02972
H          0.59563        3.15703        0.38606
H          1.97180        3.83530        1.33276
H          0.85388        4.93294        0.53257
