110
speciation2052.ct
Na         2.12928       -2.80042       -0.38697
Mg        -2.71745        0.52227       -3.45923
C          3.15133       -4.63505        1.80664
C          4.39085       -2.58789        1.95887
O          3.53973       -3.42673        1.16370
C          2.54873       -4.46534        3.21272
C          5.76681       -3.23299        2.25015
H          2.37695       -5.09655        1.16619
H          3.98702       -5.36685        1.81704
H          4.57887       -1.65011        1.41836
H          3.89822       -2.29956        2.90828
H          6.33815       -3.38099        1.31036
H          6.35629       -2.56737        2.91829
H          5.67827       -4.20781        2.77430
H          1.72615       -3.72064        3.19399
H          2.14997       -5.43811        3.56775
H          3.31769       -4.14913        3.94994
H         -4.47451       -0.19101       -5.36520
C         -5.40306       -1.12220       -3.63302
C         -4.17020       -0.69473       -4.42283
C         -6.25883       -2.10161       -4.45890
H         -5.06720       -1.62856       -2.70250
H         -5.99771       -0.22446       -3.36552
H         -6.59633       -1.60556       -5.39473
H         -5.65623       -2.99694       -4.73456
C         -7.48338       -2.57124       -3.67994
H         -3.63408       -1.62630       -4.66521
H         -7.17171       -3.12085       -2.76618
H         -8.11119       -1.70256       -3.39167
H         -8.08965       -3.25434       -4.31318
C         -0.50164       -4.15177        0.67722
C         -1.86755       -4.34722        0.71692
C         -2.39507       -3.61142       -0.31115
C         -1.32701       -2.99419       -0.94370
N         -0.14567       -3.33163       -0.33447
C         -1.51298       -2.02022       -2.09439
N         -2.18155       -0.74729       -1.69346
C         -1.44865        0.05921       -0.67187
H         -2.42045       -4.94203        1.43714
H          0.18599       -4.58015        1.38938
H         -3.44920       -3.51927       -0.55515
H         -0.54799       -1.81409       -2.59003
H         -2.14689       -2.53200       -2.85303
C         -0.12005        0.52536       -1.28494
C         -2.40174        1.18281       -0.28691
C         -1.18352       -0.62628        0.69730
H         -0.28015        0.94958       -2.29385
H          0.40369        1.25334       -0.63810
H          0.56364       -0.34715       -1.40062
H         -3.25323        0.80525        0.32083
H         -1.87760        1.98308        0.27913
H         -2.89996        1.55149       -1.15828
H         -2.09662       -1.14328        1.06977
H         -0.32185       -1.29852        0.69668
H         -0.89548        0.12581        1.46346
Na         6.95708        1.74030       -0.45531
Mg        -3.84488       -1.22026       -0.77378
C         -4.42618        3.06142       -3.98207
C         -2.51193        3.44162       -2.62801
O         -3.43350        2.46293       -3.13523
C         -3.93231        4.06933       -5.04578
C         -3.15539        4.35323       -1.56270
H         -4.96340        2.25231       -4.50972
H         -5.19758        3.56432       -3.35058
H         -1.65256        2.92613       -2.16540
H         -2.01277        4.03243       -3.41871
H         -3.61368        3.75713       -0.74572
H         -2.38624        5.01973       -1.11737
H         -3.94372        5.00005       -2.00201
H         -3.16655        3.60264       -5.69568
H         -4.78485        4.40671       -5.67242
H         -3.52249        4.99825       -4.58954
H         -1.75945        1.41827       -5.79163
C         -0.31986       -0.19136       -5.70426
C         -1.18043        0.88121       -5.00710
C         -1.17176       -1.25874       -6.39945
H          0.34685        0.29618       -6.45307
H          0.31427       -0.67577       -4.93351
H         -1.80073       -1.71176       -5.62804
H         -1.81090       -0.81118       -7.19505
C         -0.34791       -2.40132       -6.99415
H         -0.48711        1.61456       -4.54647
H          0.21413       -2.07857       -7.89501
H          0.35994       -2.80252       -6.23777
H         -1.03724       -3.22470       -7.28593
C          2.79861       -2.31856       -3.28177
C          3.50381       -1.78206       -4.31942
C          4.42646       -0.93773       -3.75971
C          4.21591       -0.96994       -2.38821
N          3.21649       -1.85294       -2.09013
C          5.02612       -0.17040       -1.40689
N          5.59017        1.07916       -1.96815
C          4.70870        2.25383       -2.20424
H          3.36987       -1.97979       -5.37515
H          1.97787       -3.02940       -3.39283
H          5.15863       -0.34110       -4.29946
H          4.49011       -0.00925       -0.45417
H          5.89662       -0.81345       -1.14851
C          3.96191        2.66065       -0.92069
C          5.61431        3.42730       -2.63681
C          3.69055        2.02225       -3.33942
H          4.67937        2.86498       -0.09998
H          3.36456        3.58033       -1.09978
H          3.26082        1.86373       -0.59979
H          6.17253        3.16977       -3.56412
H          5.01416        4.34217       -2.84001
H          6.35452        3.67337       -1.84704
H          4.20727        1.77179       -4.29053
H          2.96378        1.22780       -3.08152
H          3.09817        2.94565       -3.52324
