110
speciation2077.ct
Na         0.92296       -0.05532       -0.03169
Mg         3.88996        1.05283        2.00194
C         -1.96693       -0.92420       -0.98614
C         -2.17518        1.10783        0.12796
O         -1.39704       -0.05532       -0.03169
C         -1.07463       -2.14893       -1.15331
C         -1.53920        1.99614        1.18421
H         -2.95253       -1.29094       -0.62001
H         -2.07459       -0.42792       -1.97663
H         -2.26759        1.67475       -0.82518
H         -3.18429        0.82755        0.51007
H         -0.54880        2.35294        0.83298
H         -2.19486        2.87144        1.37867
H         -1.40955        1.42803        2.13055
H         -0.92598       -2.65405       -0.17477
H         -1.55083       -2.86689       -1.85482
H         -0.08559       -1.85380       -1.56302
H          3.40993        3.88012        0.92938
C          3.77308        4.43403        2.87445
C          3.21464        3.38665        1.89881
C          5.30764        4.57739        2.79018
H          3.31144        5.43148        2.68014
H          3.49762        4.12269        3.90112
H          5.64049        5.18566        3.65666
H          5.74807        3.57390        2.88808
C          5.88096        5.29957        1.55333
H          2.10689        3.37796        1.96211
H          5.59553        4.89997        0.55576
H          5.58461        6.36814        1.59149
H          6.99202        5.24553        1.61484
C          6.70879       -3.17625        0.59231
C          6.43369       -2.69415        1.83581
C          5.22332       -2.05992        1.72722
C          4.77467       -2.17186        0.44800
N          5.69241       -2.87453       -0.25856
C          3.46852       -1.55319       -0.09731
N          3.29296       -0.05532       -0.03169
C          4.37217        0.66185       -0.88730
H          7.05670       -2.74361        2.72634
H          7.61250       -3.70087        0.31147
H          4.74985       -1.52115        2.47250
H          2.64505       -2.01306        0.48474
H          3.32666       -1.89344       -1.14324
C          4.31010        0.43615       -2.40790
C          4.35344        2.17210       -0.66265
C          5.80750        0.28044       -0.46717
H          3.42606        0.91554       -2.86441
H          5.21514        0.90774       -2.87295
H          4.36979       -0.63699       -2.66756
H          4.69580        2.34929        0.36813
H          5.13138        2.69242       -1.27215
H          3.37828        2.62845       -0.92263
H          5.75944        0.17734        0.59057
H          6.17988       -0.65050       -0.90592
H          6.59232        1.03340       -0.70157
Na         9.06449        0.26387       -3.93363
Mg         5.79719       -3.27623       -2.12228
C          3.41828       -0.78379        4.38962
C          1.59679        0.55585        3.67406
O          2.99801        0.36493        3.64553
C          2.78868       -2.12070        3.93381
C          1.06610        0.82453        5.09083
H          4.52417       -0.82246        4.36114
H          3.27182       -0.64741        5.47982
H          1.37389        1.45755        3.07463
H          1.06315       -0.28336        3.18477
H          1.58337        1.70203        5.53453
H         -0.02292        1.02228        5.04800
H          1.20529       -0.05088        5.75868
H          2.83013       -2.26040        2.83830
H          3.31955       -2.96717        4.41912
H          1.72008       -2.17787        4.21057
H          6.44683       -0.13258        2.59781
C          6.93057        1.21235        4.05815
C          6.21001        0.92742        2.72716
C          8.38939        0.66426        4.08822
H          6.93362        2.29533        4.27836
H          6.38623        0.69040        4.87428
H          8.84479        0.93423        5.06595
H          8.38905       -0.44848        4.02072
C          9.28817        1.19514        2.96808
H          6.75760        1.49941        1.94876
H          8.94719        0.81922        1.98001
H          9.29281        2.30357        2.96587
H         10.32879        0.83067        3.11529
C          5.45832       -4.86384       -4.48171
C          5.68881       -4.91933       -5.83513
C          6.33789       -3.74261       -6.16411
C          6.47030       -3.04105       -4.99080
N          5.92508       -3.71968       -3.96612
C          7.18076       -1.70525       -4.85549
N          8.30553       -1.73912       -3.90792
C          9.45938       -2.63311       -4.20019
H          5.41116       -5.72427       -6.50043
H          4.97473       -5.63107       -3.88161
H          6.66436       -3.44985       -7.15853
H          7.50206       -1.32921       -5.83838
H          6.42379       -0.97318       -4.46746
C          9.94840       -2.49185       -5.65726
C         10.61709       -2.22658       -3.26745
C          9.12398       -4.10545       -3.87797
H         10.22580       -1.43671       -5.87016
H         10.83994       -3.13122       -5.83271
H          9.16972       -2.80853       -6.37976
H         10.32391       -2.33785       -2.20088
H         11.50752       -2.86874       -3.44862
H         10.92028       -1.17301       -3.44102
H          8.71694       -4.18349       -2.84520
H          8.40075       -4.54387       -4.58281
H         10.02920       -4.74251       -3.95021
