95
speciation1543.ct
Na         6.36666        3.11902        3.17891
Mg         2.06459        4.58200       -0.35284
C          0.06046        5.31407        1.44739
C          2.12963        4.68517        2.44759
O          1.23816        4.52104        1.35548
C          0.23783        6.81326        1.68851
C          1.59460        4.08786        3.73983
H         -0.46632        5.21647        0.48988
H         -0.63227        4.86927        2.19021
H          3.08548        4.18679        2.20292
H          2.37344        5.73506        2.63339
H          1.41346        3.00028        3.62614
H          2.34189        4.24775        4.54868
H          0.65767        4.59356        4.04677
H          0.86395        7.26597        0.91445
H         -0.75462        7.30538        1.63541
H          0.65738        7.02944        2.69111
H          3.83047        6.78768       -1.32659
C          4.20796        7.15955        0.79783
C          3.28413        6.66345       -0.36803
C          4.58497        8.66747        0.76227
H          3.69064        7.03442        1.75424
H          5.13302        6.55850        0.82308
H          5.16491        8.89538       -0.15489
H          3.66697        9.29841        0.76811
C          5.42067        9.07940        1.99198
H          2.46061        7.39680       -0.41685
H          4.82851        8.99027        2.92952
H          6.33062        8.45020        2.08601
H          5.74622       10.14198        1.90491
C          7.13289        4.73622        0.71705
C          6.89764        5.02137       -0.61120
C          5.81414        4.25753       -0.99833
C          5.42053        3.55118        0.11049
N          6.24022        3.83454        1.15899
C          4.35764        2.51118        0.17629
N          3.13388        2.68623       -0.68127
C          2.26998        1.46516       -0.43960
H          7.46585        5.70475       -1.22914
H          7.92524        5.15329        1.32849
H          5.36844        4.21064       -1.98067
H          4.88098        1.55631       -0.03383
H          4.08183        2.46029        1.24552
C          1.81342        1.24508        1.03105
C          1.00566        1.68545       -1.21312
C          2.95123        0.13127       -0.91135
H          1.29121        2.13270        1.41735
H          1.09093        0.39840        1.08416
H          2.63649        0.97220        1.72068
H          1.24277        1.90622       -2.24971
H          0.32068        0.81555       -1.15429
H          0.50708        2.55973       -0.77864
H          3.46119        0.23148       -1.88715
H          3.70265       -0.24460       -0.17852
H          2.20779       -0.69480       -0.98995
Na         5.18788        4.59663       -5.14110
Mg         3.07915        2.55899       -2.89310
H         -0.00348        5.84135       -1.69950
C         -0.90103        3.99976       -2.45000
C          0.33007        4.81058       -1.91743
C         -2.08391        3.95377       -1.49938
H         -1.25693        4.42467       -3.41424
H         -0.62002        2.96050       -2.67966
H         -2.80328        3.16678       -1.82251
H         -1.71353        3.66961       -0.49624
C         -2.84070        5.28344       -1.52849
H          0.96257        4.88640       -2.76895
H         -2.16694        6.16135       -1.58227
H         -3.47973        5.30977       -2.43930
H         -3.48376        5.37385       -0.63324
C          1.52123       -0.03125       -3.99104
C          1.62780       -0.78153       -5.14252
C          2.53259       -0.12024       -5.95671
C          2.89514        1.02621       -5.26953
N          2.35417        1.03240       -4.05225
C          3.75835        2.16994       -5.68709
N          3.47808        3.34611       -4.83652
C          2.38828        4.28215       -5.30263
H          1.10949       -1.71128       -5.35026
H          0.89383       -0.28313       -3.14970
H          2.85870       -0.44448       -6.93533
H          3.64253        2.38906       -6.76050
H          4.80883        1.85382       -5.53716
C          1.01034        3.62445       -5.09881
C          2.54230        5.61138       -4.52406
C          2.42609        4.70042       -6.80265
H          0.97591        3.19896       -4.09532
H          0.18410        4.34958       -5.25224
H          0.84338        2.78440       -5.80323
H          3.43312        6.16811       -4.87577
H          1.66511        6.28909       -4.65714
H          2.76089        5.45115       -3.45028
H          3.37758        5.20588       -7.05938
H          2.24443        3.85758       -7.49414
H          1.60194        5.42528       -7.00761
