81
speciation662.ct
Na         0.32527        1.74150       -0.56215
Mg         3.51773       -0.44531       -1.32714
C          3.01763        0.97530       -2.78122
C          3.74678       -0.21935       -4.55388
O          4.05292        0.14191       -3.17673
C          1.74149        0.09007       -2.76077
C          4.70416       -1.20869       -5.17137
H          3.28582        1.39478       -1.77864
H          3.00169        1.88964       -3.39583
H          2.75354       -0.70150       -4.69750
H          3.75992        0.69940       -5.18946
H          4.62811       -2.18183       -4.64294
H          4.38516       -1.37627       -6.22607
H          5.73483       -0.81521       -5.15815
H          2.08218       -0.88142       -2.35625
H          1.28373        0.72741       -2.03092
H          0.73063       -0.33480       -2.74349
H          4.96503       -2.61842       -1.56761
C          6.55485       -1.31546       -0.87868
C          5.29261       -1.57386       -1.70361
C          7.08444        0.11119       -1.05523
H          6.35566       -1.51748        0.19928
H          7.32801       -2.03336       -1.23823
H          7.25576        0.33580       -2.13095
H          6.35008        0.84166       -0.65268
C          8.41691        0.27260       -0.31727
H          5.62927       -1.48262       -2.75127
H          8.28675        0.05109        0.76529
H          9.16868       -0.43562       -0.73633
H          8.80284        1.30192       -0.43355
C         -2.33368        0.86003        0.80229
C         -2.79703       -0.40682        1.09937
C         -1.74360       -1.28791        0.89291
C         -0.66443       -0.52602        0.49085
N         -1.04919        0.76397        0.39880
C          0.72621       -1.07051        0.10616
N          1.81645       -0.02460        0.05713
C          2.54772        0.07324        1.36386
H         -3.81049       -0.66831        1.37099
H         -2.91837        1.76680        0.76141
H         -1.77362       -2.36416        0.98798
H          0.62237       -1.58998       -0.85972
H          0.97468       -1.88829        0.80461
C          3.46310       -1.16526        1.54499
C          3.43630        1.32605        1.33822
C          1.62789        0.18171        2.61240
H          4.10607       -1.28910        0.65835
H          4.11397       -1.06520        2.43992
H          2.89759       -2.10983        1.67591
H          2.81248        2.23385        1.26252
H          4.04345        1.39769        2.27262
H          4.14018        1.28866        0.47389
H          0.97129        1.08122        2.55139
H          0.98522       -0.71421        2.75061
H          2.23972        0.26315        3.54010
Mg         2.63933        3.70908       -2.44416
C         -2.11784        0.26428       -2.33529
C         -2.38948        0.08089       -3.66983
C         -1.49898        0.86393       -4.36233
C         -0.76012        1.52284       -3.40645
N         -1.07841        1.11297       -2.18201
C          0.30420        2.53714       -3.64555
N          0.76253        3.15904       -2.35333
C          0.12101        4.47045       -2.10677
H         -3.12946       -0.59430       -4.07681
H         -2.62561       -0.25897       -1.54601
H         -1.40183        0.93286       -5.43492
H         -0.06877        3.25802       -4.37893
H          1.11502        2.06166       -4.21148
C         -1.41751        4.33632       -1.98418
C          0.68746        5.00921       -0.78977
C          0.47297        5.51515       -3.21621
H         -1.66466        3.62606       -1.15694
H         -1.87634        5.31395       -1.75388
H         -1.86538        3.95778       -2.92198
H          1.78187        5.13142       -0.85377
H          0.24109        6.00186       -0.54642
H          0.46502        4.31166        0.05296
H          1.57994        5.60272       -3.31303
H          0.06602        5.28211       -4.21196
H          0.06445        6.50533       -2.95375
