96
speciation1309.ct
Na         0.91820        0.04145        0.03989
Mg         4.58786        4.54783       -0.66778
C         -1.86538       -0.44635        1.29411
C         -1.93372       -0.64167       -1.08823
O         -1.40180        0.04145        0.03989
C         -1.78485       -1.96751        1.49896
C         -3.40091       -0.28951       -1.34563
H         -1.22008        0.01720        2.06940
H         -2.89252       -0.07613        1.49751
H         -1.35781       -0.32676       -1.98338
H         -1.78696       -1.73955       -1.02800
H         -3.77490       -0.87570       -2.21173
H         -3.50039        0.79106       -1.57840
H         -4.03647       -0.53334       -0.47059
H         -0.75618       -2.33130        1.29310
H         -2.51414       -2.50367        0.85625
H         -2.05160       -2.21195        2.54823
H          6.12831        6.65517       -0.39956
C          7.37702        4.95227        0.07140
C          6.05401        5.69878        0.16127
C          7.73421        4.70168       -1.39679
H          8.17377        5.56380        0.54772
H          7.28560        3.98606        0.61257
H          6.92655        4.10819       -1.87637
H          7.82033        5.67353       -1.93065
C          9.06113        3.95874       -1.52628
H          5.79315        5.92265        1.21690
H          9.88019        4.54348       -1.05845
H          8.99387        2.96273       -1.03862
H          9.30479        3.81590       -2.60077
C          2.52245        3.72655       -2.62243
C          1.86123        2.61337       -3.08989
C          2.12190        1.60062       -2.18843
C          2.93282        2.13477       -1.21092
N          3.15765        3.42508       -1.47651
C          3.58942        1.47606       -0.04795
N          3.28820        0.04145        0.03989
C          3.64393       -0.50997        1.37751
H          1.29904        2.53873       -4.00750
H          2.60408        4.67894       -3.12868
H          1.79354        0.59277       -2.27034
H          3.19759        2.02174        0.82806
H          4.68256        1.63401       -0.09630
C          2.77671        0.05356        2.52915
C          3.36111       -1.96617        1.27243
C          5.13908       -0.33648        1.74140
H          1.69377       -0.05800        2.30690
H          2.99162       -0.50108        3.47141
H          2.99870        1.11488        2.74826
H          4.04611       -2.32504        0.49189
H          3.57153       -2.48198        2.23377
H          2.30278       -2.14133        0.97510
H          5.79069       -0.72905        0.94407
H          5.40045        0.72573        1.91309
H          5.37316       -0.88936        2.67957
Mg         4.07591       -1.15842       -1.45272
C          6.69061       -1.55259       -2.49005
C          6.28159        0.77441       -2.17210
O          5.72038       -0.52520       -2.36936
C          7.40752       -1.86643       -1.18277
C          7.35992        1.18980       -3.19713
H          6.15816       -2.46628       -2.82536
H          7.41197       -1.34820       -3.30563
H          5.45462        1.51182       -2.33356
H          6.66820        0.92454       -1.14260
H          8.31478        0.65081       -3.01500
H          7.58153        2.27243       -3.11457
H          7.01170        0.99818       -4.23342
H          6.67236       -2.19160       -0.42541
H          7.97949       -0.99071       -0.81782
H          8.12033       -2.70345       -1.34860
C          5.17395       -5.01906        1.21153
C          3.99337       -5.11723        1.91966
C          2.96367       -4.84276        1.04029
C          3.49393       -4.57943       -0.15563
N          4.90629       -4.71141       -0.13522
C          2.69851       -4.14634       -1.35032
N          3.29409       -3.03029       -2.13683
C          2.54491       -2.77334       -3.40485
H          3.90259       -5.32744        2.97920
H          6.16214       -5.14375        1.62438
H          1.91047       -4.80237        1.29036
H          1.67027       -3.89735       -1.01866
H          2.66737       -5.06298       -1.96395
C          1.14070       -2.20647       -3.10813
C          3.34507       -1.76001       -4.24108
C          2.36829       -4.04575       -4.28499
H          1.20321       -1.36650       -2.41079
H          0.63303       -1.88057       -4.04035
H          0.48417       -2.96124       -2.62981
H          4.34228       -2.17681       -4.50121
H          2.81805       -1.52484       -5.18918
H          3.48588       -0.81090       -3.68500
H          3.35188       -4.52171       -4.49526
H          1.69414       -4.79272       -3.81929
H          1.88736       -3.78531       -5.25171
