110
speciation2372.ct
Na         1.03165       -0.00380       -0.09478
Mg         4.40248        1.54574       -0.98120
C         -1.88443        0.47707       -1.28700
C         -1.85121        0.68093        1.00771
O         -1.28835       -0.00380       -0.09478
C         -1.23345       -0.15490       -2.50517
C         -1.28475        0.13830        2.30973
H         -2.95664        0.17657       -1.30916
H         -1.79545        1.58399       -1.37898
H         -1.64271        1.77322        0.95345
H         -2.95244        0.50643        1.04291
H         -0.19001        0.31338        2.35323
H         -1.76724        0.65964        3.16490
H         -1.49083       -0.94971        2.39453
H         -1.26853       -1.26298       -2.43678
H         -1.76977        0.16762       -3.42267
H         -0.18916        0.18817       -2.58684
H          2.04465        2.54454       -1.49514
C          3.19966        4.03638       -2.54825
C          3.00456        3.09000       -1.36051
C          3.29294        3.28331       -3.87870
H          2.33774        4.74024       -2.58522
H          4.12278        4.62801       -2.39874
H          4.15577        2.58440       -3.84676
H          2.36194        2.69981       -4.05230
C          3.48850        4.25658       -5.04219
H          2.92759        3.68882       -0.42967
H          2.62262        4.94898       -5.12095
H          4.41528        4.85225       -4.89671
H          3.57723        3.69259       -5.99455
C          7.17228       -1.49606        1.61280
C          7.34869       -0.29890        2.26866
C          6.13841        0.35814        2.21841
C          5.27120       -0.47116        1.52977
N          5.90722       -1.60419        1.16668
C          3.80690       -0.19346        1.30960
N          3.40165       -0.00380       -0.09478
C          3.58455       -1.07427       -1.09378
H          8.25459        0.04298        2.75199
H          7.92109       -2.26808        1.49238
H          5.91192        1.31893        2.66035
H          3.55344        0.75086        1.83686
H          3.19898       -0.98199        1.79597
C          2.89685       -2.35643       -0.59360
C          2.90876       -0.51992       -2.35626
C          5.04759       -1.32537       -1.56436
H          1.80201       -2.21602       -0.49932
H          3.09946       -3.19731       -1.24581
H          3.27020       -2.66108        0.40128
H          3.34185        0.47223       -2.61083
H          3.08050       -1.13956       -3.23737
H          1.82869       -0.41001       -2.21508
H          5.50097       -0.37735       -1.81159
H          5.75330       -1.89559       -0.98188
H          5.05978       -1.92270       -2.48889
Na         5.16586       -3.58691        0.10079
Mg         2.43619       -5.64072       -0.92484
C          0.06253       -6.57494        0.15578
C         -0.05619       -6.04651       -2.16046
O          0.49783       -5.71003       -0.88559
C          0.25448       -8.07953       -0.10557
C         -1.55443       -5.76893       -2.26464
H          0.65117       -6.31482        1.06279
H         -0.99589       -6.36239        0.41808
H          0.35938       -5.38297       -2.92986
H          0.20953       -7.07218       -2.48620
H         -1.75455       -4.69762       -2.04733
H         -1.88831       -5.98297       -3.30392
H         -2.13821       -6.40944       -1.57701
H          1.31198       -8.29364       -0.34792
H         -0.02626       -8.65249        0.80094
H         -0.40129       -8.44531       -0.92579
H          7.04627        1.73165       -0.26767
C          7.17995        3.06788       -1.95683
C          6.59121        1.84142       -1.27305
C          6.96196        4.33365       -1.13653
H          8.27935        2.91082       -2.06783
H          6.73729        3.17097       -2.97162
H          5.87809        4.51281       -1.00393
H          7.42464        4.21550       -0.13171
C          7.60163        5.52893       -1.83664
H          6.98790        1.00335       -1.87982
H          8.69893        5.37643       -1.93299
H          7.16531        5.66038       -2.84992
H          7.42279        6.44864       -1.24376
C          4.08396       -3.00320       -4.84787
C          2.83251       -3.29074       -4.35104
C          2.99568       -4.26048       -3.39579
C          4.28023       -4.56442       -3.27951
N          5.04692       -3.79923       -4.19178
C          4.84458       -5.63830       -2.39448
N          4.42451       -5.56963       -0.96510
C          4.95719       -6.71984       -0.17586
H          1.90465       -2.81813       -4.64428
H          4.30140       -2.26326       -5.60227
H          2.24594       -4.70732       -2.79390
H          5.94382       -5.61239       -2.51079
H          4.44272       -6.56049       -2.85489
C          6.49542       -6.64230       -0.05053
C          4.34226       -6.64749        1.22894
C          4.57692       -8.09635       -0.79422
H          6.80227       -5.67306        0.39771
H          6.87273       -7.46493        0.59283
H          7.00597       -6.75578       -1.02891
H          3.23685       -6.72627        1.16772
H          4.71935       -7.48212        1.85914
H          4.60535       -5.68763        1.71581
H          3.48262       -8.17996       -0.91665
H          5.05883       -8.27273       -1.77809
H          4.92674       -8.92219       -0.14310
