110
speciation2588.ct
Na         3.56759        0.69975        3.02878
Mg         1.96109        4.61260       -0.87682
C          3.03848        5.77702        1.36754
C          2.87656        7.35700       -0.40958
O          2.98727        5.98887       -0.03507
C          1.79523        6.22127        2.13906
C          4.14608        8.15190       -0.07037
H          3.12482        4.69611        1.53079
H          3.97088        6.18795        1.80186
H          2.75694        7.40252       -1.51220
H          1.98114        7.84795        0.02271
H          5.02936        7.68149       -0.55139
H          4.05061        9.19699       -0.43113
H          4.31443        8.20393        1.02519
H          0.89095        5.72114        1.73387
H          1.91858        5.92951        3.20372
H          1.66481        7.32056        2.11496
H          0.10215        6.56344       -0.76759
C         -1.29949        5.32798       -1.83573
C          0.15635        5.76742       -1.53720
C         -2.02857        4.73213       -0.62203
H         -1.86994        6.22136       -2.17595
H         -1.31699        4.59877       -2.67175
H         -1.49130        3.83470       -0.26145
H         -2.07161        5.48113        0.19856
C         -3.45852        4.31769       -0.98710
H          0.54840        6.22143       -2.47152
H         -4.04767        5.19510       -1.33039
H         -3.44675        3.55428       -1.79482
H         -3.96686        3.87936       -0.10141
C          4.88121       -0.85999        0.79299
C          5.25093       -0.91124       -0.52929
C          4.90511        0.28963       -1.08702
C          4.36277        1.06407       -0.08129
N          4.32029        0.33791        1.06125
C          3.81132        2.49141       -0.20340
N          2.75579        2.72825       -1.23444
C          1.50027        1.91984       -0.99466
H          5.72681       -1.76151       -1.02236
H          4.98153       -1.65787        1.51908
H          5.02548        0.55708       -2.11087
H          3.45825        2.77012        0.79364
H          4.67164        3.14723       -0.44654
C          0.85504        2.32759        0.35364
C          0.53034        2.23603       -2.13957
C          1.63341        0.36732       -0.99838
H          0.71814        3.42325        0.41553
H         -0.13467        1.83833        0.49150
H          1.47333        2.00296        1.21724
H          0.95107        1.90718       -3.10724
H         -0.44551        1.73013       -1.98671
H          0.36922        3.31083       -2.19274
H          2.16924       -0.03553       -0.12690
H          2.07319       -0.01858       -1.93817
H          0.62519       -0.09074       -0.88586
Na         4.06578        2.33667       -3.17027
Mg         6.94294        5.21487       -6.83801
C          3.86985        5.69025       -5.54907
C          5.66480        6.86937       -4.67291
O          5.30871        5.88492       -5.60906
C          3.04733        6.89609       -5.99140
C          7.14847        6.92878       -4.60207
H          3.53228        4.89335       -6.23575
H          3.54515        5.34756       -4.53359
H          5.32423        7.85889       -5.03154
H          5.28557        6.64069       -3.64707
H          7.50264        7.03377       -5.64338
H          7.46910        7.80041       -4.00176
H          7.56056        6.01412       -4.13678
H          3.41687        7.24304       -6.97585
H          1.97741        6.60291       -6.08773
H          3.09739        7.71126       -5.24226
H          9.83546        4.79437       -5.89354
C         10.11267        6.93868       -5.69931
C          9.50702        5.68768       -6.46975
C         11.62978        7.09917       -5.29014
H          9.79786        7.87296       -6.20572
H          9.64143        6.90009       -4.70354
H         11.64752        7.92099       -4.53300
H         12.01340        6.19481       -4.77145
C         12.66568        7.57449       -6.32511
H         10.01583        5.62169       -7.45554
H         12.87313        6.81835       -7.10399
H         12.36412        8.53959       -6.78682
H         13.63154        7.78040       -5.79520
C          7.09392        2.88900       -9.16466
C          6.56588        1.62317       -9.39960
C          5.70406        1.35245       -8.36501
C          5.73385        2.47320       -7.55044
N          6.58950        3.42000       -8.01706
C          4.94653        2.66787       -6.30133
N          5.37578        1.94508       -5.10611
C          6.85578        2.02739       -4.75535
H          6.79043        0.95548      -10.22473
H          7.82456        3.36853       -9.80025
H          5.12327        0.44801       -8.22293
H          3.86846        2.48737       -6.49897
H          5.12378        3.68339       -6.06680
C          7.30619        3.46903       -4.58402
C          7.11823        1.35835       -3.40412
C          7.79756        1.29728       -5.76200
H          6.66965        3.97541       -3.82731
H          8.37429        3.53833       -4.28154
H          7.23699        3.98580       -5.52949
H          6.84965        0.28429       -3.43314
H          8.20123        1.42610       -3.14127
H          6.58282        1.90426       -2.60528
H          7.48658        0.24468       -5.91366
H          7.90776        1.78291       -6.73734
H          8.84474        1.30102       -5.38306
