68
speciation90.ct
Na         0.85542       -0.07729        0.15821
Mg        -1.91434        0.72581       -1.62820
C          0.12595       -1.27858        3.04436
C         -1.49796        0.21918        2.25853
O         -0.20024       -0.31077        2.05198
C         -0.74306       -2.54388        3.00520
C         -1.78240        1.28931        1.23411
H          1.16713       -1.59934        2.88773
H          0.11023       -0.82443        4.06191
H         -2.27884       -0.55930        2.11850
H         -1.58122        0.69013        3.26452
H         -1.72343        0.82157        0.24624
H         -2.80763        1.69261        1.37855
H         -1.03994        2.10919        1.30387
H         -0.73765       -2.99053        1.99323
H         -0.34164       -3.29161        3.72069
H         -1.78831       -2.33231        3.31075
C         -2.41583        2.99695       -3.54562
C         -1.54780        3.44870       -4.52219
C         -0.40930        2.66518       -4.44095
C         -0.63332        1.76807       -3.41532
N         -1.84799        1.97277       -2.88582
C          0.32115        0.67796       -2.90900
N         -0.25570       -0.14688       -1.79201
C         -0.65812       -1.52863       -2.15219
H         -1.72738        4.25967       -5.21562
H         -3.40022        3.39109       -3.32821
H          0.47417        2.73972       -5.06030
H          1.24619        1.16885       -2.54471
H          0.60336        0.06341       -3.78378
C          0.53232       -2.37185       -2.65083
C         -1.20690       -2.17429       -0.87451
C         -1.77772       -1.52368       -3.21543
H          1.35440       -2.34157       -1.91794
H          0.22572       -3.43214       -2.79190
H          0.92470       -2.03182       -3.62864
H         -2.07353       -1.60062       -0.48148
H         -1.53218       -3.22118       -1.05952
H         -0.41415       -2.18696       -0.09956
H         -2.65822       -0.94771       -2.86037
H         -1.43092       -1.07869       -4.17100
H         -2.11141       -2.56341       -3.43092
Na         3.18463       -0.65232       -2.05845
C          5.21788        1.31634       -3.51604
C          5.80122        2.48877       -3.06475
C          5.34596        2.68989       -1.77186
C          4.51257        1.62214       -1.48997
N          4.43709        0.80707       -2.55584
C          3.76417        1.38997       -0.17783
N          3.08471        0.05868       -0.10938
C          3.77900       -0.96921        0.70362
H          6.47946        3.12610       -3.61807
H          5.34976        0.87653       -4.49367
H          5.60454        3.51125       -1.11921
H          3.01718        2.19834       -0.04971
H          4.50312        1.51618        0.63574
C          3.84623       -0.55900        2.19257
C          2.97035       -2.26492        0.56790
C          5.21238       -1.25492        0.18761
H          2.85321       -0.24327        2.55852
H          4.21804       -1.40305        2.81322
H          4.54618        0.28189        2.37000
H          2.99803       -2.61954       -0.48078
H          3.38667       -3.07128        1.20752
H          1.91315       -2.09844        0.84502
H          5.19483       -1.57041       -0.87769
H          5.87308       -0.36817        0.27659
H          5.67716       -2.07642        0.77811
