96
speciation1751.ct
Na         0.08816        0.63432       -0.11632
Mg        -0.33140       -1.37513       -0.05859
C         -1.52638       -2.93367        2.26209
C          0.13339       -4.12765        1.03481
O         -0.70098       -2.97576        1.09861
C         -0.86306       -3.15791        3.63418
C         -0.64336       -5.43048        0.82493
H         -1.94265       -1.92616        2.32421
H         -2.38320       -3.62880        2.13360
H          0.81525       -4.01348        0.17573
H          0.78582       -4.22740        1.92399
H         -1.20113       -5.39634       -0.13177
H          0.07098       -6.28205        0.79722
H         -1.34986       -5.62165        1.65889
H         -0.08510       -2.39983        3.84283
H         -1.64461       -3.05809        4.41908
H         -0.43435       -4.17320        3.74254
H         -4.67104        2.54538        6.65073
C         -5.74022        4.13257        5.63818
C         -4.57920        3.15447        5.72556
C         -5.74493        5.08755        6.83577
H         -5.65661        4.70670        4.69097
H         -6.68721        3.55033        5.62248
H         -5.81165        4.50659        7.78259
H         -4.80227        5.67653        6.84507
C         -6.93240        6.04141        6.76384
H         -3.59984        3.67716        5.72021
H         -6.89436        6.63248        5.82442
H         -7.88502        5.47015        6.79782
H         -6.90425        6.73811        7.62761
C         -5.60355       -0.55111        2.97150
C         -5.37279       -1.55715        2.06576
C         -4.18997       -1.25468        1.44413
C         -3.74762       -0.05402        1.97722
N         -4.60867        0.35391        2.93607
C         -2.49032        0.68624        1.58000
N         -1.93854        0.24983        0.25457
C         -2.66206        0.85117       -0.92312
H         -5.99146       -2.42286        1.88316
H         -6.45471       -0.48464        3.63545
H         -3.70183       -1.85169        0.69326
H         -1.78921        0.57858        2.41292
H         -2.69749        1.77212        1.58154
C         -2.88094        2.38315       -0.88257
C         -1.79947        0.62694       -2.11686
C         -4.01964        0.15953       -1.18116
H         -1.91591        2.92153       -0.76639
H         -3.33089        2.70983       -1.84973
H         -3.59548        2.70367       -0.10290
H         -1.60276       -0.40962       -2.10010
H         -2.30788        0.87660       -3.07133
H         -0.83242        1.16314       -2.04337
H         -3.89408       -0.93943       -1.27366
H         -4.75473        0.40761       -0.39085
H         -4.47352        0.50806       -2.13069
Mg        -4.71612        1.79887        4.22178
C          0.49997       -1.83841       -3.12248
C         -1.55382       -2.82452       -2.41496
O         -0.32798       -2.19975       -2.00022
C         -0.07444       -0.96470       -4.26223
C         -1.38083       -4.13943       -3.18042
H          1.36444       -1.30131       -2.75875
H          0.93559       -2.75681       -3.56364
H         -2.16288       -3.03051       -1.51152
H         -2.17367       -2.16026       -3.05418
H         -0.86480       -4.89250       -2.55608
H         -2.38547       -4.52380       -3.46413
H         -0.82520       -3.99152       -4.13120
H         -0.28921        0.06684       -3.94611
H          0.70235       -0.83193       -5.04482
H         -0.96277       -1.40822       -4.75754
C          3.99414       -4.03852       -0.44031
C          5.14861       -3.37876       -0.08296
C          4.86591       -2.02295       -0.08163
C          3.58126       -1.86411       -0.40807
N          2.97219       -3.10611       -0.67969
C          2.84380       -0.55095       -0.46000
N          1.66816       -0.54980        0.44440
C          1.98751       -0.29615        1.87719
H          6.09113       -3.84829        0.16839
H          3.87878       -5.11166       -0.51803
H          5.55617       -1.23087        0.17911
H          2.53317       -0.32864       -1.47999
H          3.53662        0.29117       -0.26723
C          2.97269        0.87351        2.12329
C          0.68619        0.08111        2.56133
C          2.54066       -1.56992        2.55521
H          2.60403        1.79401        1.62704
H          3.06702        1.07241        3.21179
H          3.99273        0.63926        1.76856
H         -0.05566       -0.71101        2.34534
H          0.79764        0.17951        3.65838
H          0.32423        1.04458        2.15188
H          1.84168       -2.41330        2.42530
H          3.52020       -1.86191        2.15789
H          2.67828       -1.40502        3.64762
