96
speciation1625.ct
Na         2.42854       -0.03474        0.21244
Mg         1.62797        1.83869       -1.34886
C         -1.23393        3.14064       -1.94325
C          0.34363        3.80353       -3.59228
O          0.13921        3.10704       -2.33939
C         -2.25338        2.56814       -2.96467
C         -0.08830        5.28020       -3.66155
H         -1.36451        2.58122       -0.99989
H         -1.54118        4.18433       -1.69043
H          1.41270        3.72952       -3.85385
H         -0.17179        3.31693       -4.43614
H          0.35127        5.91650       -2.87605
H          0.23105        5.68420       -4.64768
H         -1.19056        5.37786       -3.61100
H         -2.06173        1.49796       -3.16369
H         -3.28524        2.66300       -2.56361
H         -2.26096        3.12862       -3.92457
H          0.30602        2.41268        1.06942
C          0.92763        0.58056        2.01812
C          0.54683        1.38581        0.72632
C          2.17560        1.11695        2.73980
H          0.07878        0.58098        2.73645
H          1.08880       -0.48492        1.78487
H          3.01669        1.23494        2.03267
H          1.94460        2.11178        3.17228
C          2.64350        0.16065        3.84687
H         -0.38297        0.91112        0.34711
H          1.83820       -0.02511        4.58823
H          2.95874       -0.81388        3.41000
H          3.52060        0.59311        4.37468
C          0.44031       -2.58846        0.09160
C          0.42635       -3.61484       -0.82933
C          1.37024       -3.29359       -1.78811
C          1.87150       -2.04953       -1.44423
N          1.35882       -1.67277       -0.27549
C          2.85228       -1.16057       -2.20732
N          2.22175        0.11102       -2.72065
C          1.42870       -0.21976       -3.98802
H         -0.18461       -4.50668       -0.80322
H         -0.14927       -2.54566        1.00047
H          1.62319       -3.88276       -2.65993
H          3.30982       -1.75787       -3.00195
H          3.72146       -0.94104       -1.62349
C          0.23826       -1.18136       -3.75910
C          0.82223        1.03198       -4.51756
C          2.27005       -0.81088       -5.15960
H         -0.35235       -0.89750       -2.86207
H         -0.44271       -1.19461       -4.63715
H          0.57227       -2.21927       -3.72951
H          1.61857        1.76952       -4.72035
H          0.25291        0.86795       -5.45958
H          0.10360        1.32877       -3.75309
H          3.00264       -0.10047       -5.52089
H          2.78502       -1.76567       -4.95768
H          1.61860       -1.02781       -6.03187
Mg         3.57957        1.84805       -2.81210
C          4.87977        1.83103       -5.31158
C          6.37176        2.53077       -3.61780
O          5.01290        2.46478       -4.05090
C          5.47237        0.40743       -5.36584
C          7.25323        3.42346       -4.51247
H          3.80017        1.81659       -5.52249
H          5.27536        2.45761       -6.13666
H          6.40399        3.00350       -2.62736
H          6.82038        1.52550       -3.48913
H          6.87680        4.46839       -4.50459
H          8.29569        3.41981       -4.12928
H          7.29995        3.06490       -5.56099
H          5.10451       -0.19425       -4.50646
H          5.18651       -0.09022       -6.31528
H          6.58108        0.42514       -5.34554
C          5.18232       -1.00073        0.44606
C          6.51120       -0.68586        0.28267
C          6.55070        0.64872       -0.04996
C          5.23442        1.08622       -0.07175
N          4.42252        0.08539        0.22234
C          4.80705        2.49241       -0.23135
N          3.57176        2.90360       -0.99488
C          3.48146        4.42904       -0.79400
H          7.34857       -1.36411        0.39041
H          4.78249       -1.97613        0.69083
H          7.44226        1.23410       -0.22590
H          4.70819        2.76546        0.82362
H          5.70306        3.00492       -0.60666
C          4.66984        5.20175       -1.45487
C          2.24428        5.00643       -1.42958
C          3.37528        4.86623        0.70615
H          4.73498        4.96476       -2.53846
H          4.52185        6.30127       -1.36150
H          5.65479        5.02343       -0.98771
H          1.33641        4.55816       -0.98942
H          2.16689        6.10453       -1.25141
H          2.35805        4.90849       -2.50965
H          2.51548        4.36735        1.20270
H          4.29411        4.70471        1.30126
H          3.22274        5.96656        0.78422
