96
speciation1719.ct
Na         0.83857       -0.45960        0.19175
Mg         5.26255        4.15717        1.04421
C          6.92547        2.68152       -0.53946
C          6.65992        4.86931       -1.42534
O          6.06282        3.79900       -0.69587
C          8.32289        2.98634        0.01937
C          6.89510        4.52635       -2.90984
H          6.43769        2.02078        0.19634
H          6.98767        2.10056       -1.48242
H          5.97856        5.74454       -1.40433
H          7.59832        5.22261       -0.95296
H          5.92997        4.38694       -3.44107
H          7.44428        5.35936       -3.40275
H          7.51452        3.61560       -3.04464
H          8.23343        3.55523        0.96417
H          8.86016        2.04052        0.22894
H          8.94480        3.54627       -0.70945
H          1.84637       -2.30844       -1.96582
C          2.40411       -1.85327       -4.00845
C          2.22340       -1.43500       -2.54015
C          1.12413       -2.42144       -4.66991
H          2.74524       -0.97041       -4.58729
H          3.18770       -2.63687       -4.03835
H          0.76053       -3.30839       -4.10589
H          0.31084       -1.66150       -4.68504
C          1.41301       -2.85790       -6.11215
H          1.43899       -0.64732       -2.48152
H          1.72705       -1.98725       -6.72649
H          2.22251       -3.61907       -6.12848
H          0.50802       -3.30633       -6.57782
C          3.27625        3.44327        3.17812
C          2.20444        2.65802        3.53445
C          2.01461        1.76749        2.50242
C          3.02267        2.01024        1.57553
N          3.75866        3.08660        1.96784
C          3.28571        1.25534        0.28615
N          2.96010       -0.19768        0.21857
C          3.54471       -1.17207        1.18056
H          1.61834        2.73038        4.44377
H          3.66582        4.25296        3.78303
H          1.24163        1.01396        2.46077
H          4.34204        1.39948        0.01457
H          2.71340        1.76725       -0.51419
C          3.22978       -0.92788        2.67238
C          3.01875       -2.58276        0.84006
C          5.03100       -1.18699        1.00199
H          2.13809       -0.95176        2.85906
H          3.67390       -1.73229        3.29931
H          3.69880       -0.00038        3.05050
H          3.29527       -2.87563       -0.19324
H          3.46027       -3.34261        1.52673
H          1.91550       -2.63025        0.94874
H          5.27325       -1.45767       -0.03441
H          5.46256       -0.19844        1.25741
H          5.44200       -1.97340        1.64575
Mg         4.06119       -0.68075       -1.47804
C          4.51928        6.50559        2.20296
C          6.88621        6.33278        1.96508
O          5.65785        5.65044        2.18027
C          4.37401        7.45356        1.01020
C          7.27786        7.21303        3.16004
H          3.62724        5.85519        2.16997
H          4.45307        7.04984        3.16947
H          7.68667        5.57673        1.85944
H          6.88876        6.91453        1.02136
H          7.36658        6.59555        4.07896
H          8.25618        7.70046        2.96260
H          6.53312        8.01672        3.33496
H          4.44954        6.88266        0.06286
H          3.37873        7.94346        1.05430
H          5.13829        8.25671        1.03829
C          6.26322       -0.40079       -3.46465
C          7.58709       -0.30652       -3.84109
C          8.32757       -0.46946       -2.70732
C          7.43385       -0.64506       -1.66292
N          6.12501       -0.61001       -2.12528
C          7.95714       -0.75190       -0.22833
N          7.71180       -2.04626        0.43148
C          8.26886       -2.18030        1.81679
H          7.98142       -0.12169       -4.83398
H          5.42950       -0.29085       -4.14594
H          9.41212       -0.43584       -2.63912
H          9.05427       -0.58987       -0.26441
H          7.51944        0.07031        0.35094
C          7.85683       -1.02341        2.77545
C          7.75706       -3.51595        2.39695
C          9.80923       -2.24229        1.80354
H          6.77229       -0.94277        2.94493
H          8.28869       -1.18973        3.78446
H          8.23473       -0.04050        2.42653
H          8.09519       -4.36620        1.76625
H          8.13372       -3.67209        3.43089
H          6.65197       -3.55904        2.44068
H         10.16683       -3.08777        1.18145
H         10.25809       -1.29933        1.43478
H         10.18721       -2.39116        2.84099
