68
speciation10.ct
Na         7.37055        2.50752       -0.18346
Mg         3.98044        2.45117       -2.90681
C          9.62167        4.26068       -1.46100
C         10.08517        3.85177        0.80598
O          9.08088        4.07496       -0.16626
C         10.43686        3.06972       -1.99297
C          9.44190        3.63926        2.16739
H          8.75898        4.41807       -2.12776
H         10.21702        5.19940       -1.51297
H         10.68505        2.94275        0.59350
H         10.74396        4.74618        0.87894
H          8.81351        2.72343        2.15029
H         10.23535        3.51139        2.93524
H          8.81377        4.51247        2.43963
H          9.88683        2.11770       -1.85795
H         10.64912        3.22170       -3.07218
H         11.41081        2.97820       -1.47371
C          5.78212       -0.42736       -0.26316
C          4.55261       -1.05669       -0.28272
C          3.60100       -0.05904       -0.23435
C          4.29995        1.12921       -0.18773
N          5.62336        0.90629       -0.20102
C          3.71659        2.48869       -0.10436
N          2.88049        2.77997       -1.28136
C          2.28726        4.14799       -1.24644
H          4.36803       -2.12127       -0.32632
H          6.74410       -0.92695       -0.29091
H          2.52619       -0.18466       -0.22884
H          3.12313        2.51506        0.82979
H          4.56328        3.19908       -0.03646
C          3.37917        5.24185       -1.29890
C          1.38188        4.30134       -2.47542
C          1.41632        4.37082        0.01789
H          4.02831        5.10257       -2.18611
H          2.91896        6.25221       -1.35317
H          4.01301        5.24566       -0.38881
H          0.55719        3.55833       -2.44259
H          0.93049        5.31868       -2.49950
H          1.96190        4.15168       -3.41013
H          0.62547        3.59472        0.09310
H          2.01797        4.36093        0.95006
H          0.92869        5.36933       -0.01549
Na         3.16039        0.29853       -3.35794
C          1.17963        1.09663       -5.61687
C          1.00968        1.87872       -6.74200
C          2.18613        2.57192       -6.91641
C          3.02397        2.18450       -5.88909
N          2.41082        1.28102       -5.09847
C          4.41200        2.70970       -5.70857
N          5.08040        2.12237       -4.53226
C          6.47516        2.56324       -4.33718
H          0.12723        1.93928       -7.36529
H          0.44125        0.42664       -5.20238
H          2.40860        3.28096       -7.70252
H          4.32098        3.80822       -5.59724
H          4.96745        2.46436       -6.63487
C          6.58153        4.10008       -4.19609
C          6.94469        1.91684       -3.04195
C          7.39279        2.09099       -5.48699
H          5.95309        4.46176       -3.35703
H          7.63124        4.39959       -4.01252
H          6.28186        4.62630       -5.12407
H          6.88204        0.80868       -3.10299
H          7.98545        2.19883       -2.83799
H          6.30660        2.27095       -2.21035
H          7.33129        0.98947       -5.61100
H          7.13406        2.57629       -6.44971
H          8.44991        2.36250       -5.27144
