53
speciation843.ct
Na         1.30708        1.88907       -0.00959
C         -1.78197        1.13979       -0.01914
C         -2.41276       -0.08850       -0.05476
C         -1.41816       -1.04904       -0.08298
C         -0.22003       -0.36429       -0.06000
N         -0.45187        0.95872       -0.02567
C          1.16556       -0.98781       -0.06820
N          2.24500        0.03300       -0.00400
C          3.11697        0.01928        1.19047
H         -3.47989       -0.26292       -0.05834
H         -2.26228        2.10784        0.00408
H         -1.55404       -2.12206       -0.11061
H          1.28609       -1.57032       -1.00529
H          1.21795       -1.70503        0.77326
C          3.91249       -1.30004        1.28728
C          4.12262        1.17491        1.03871
C          2.29802        0.25874        2.47802
H          4.50579       -1.46152        0.36198
H          4.61256       -1.26586        2.15058
H          3.25404       -2.17819        1.43604
H          3.59467        2.14941        0.96047
H          4.80895        1.22131        1.91248
H          4.73668        1.04056        0.12280
H          1.74367        1.21959        2.41012
H          1.56448       -0.55130        2.66196
H          2.97042        0.30804        3.36185
Na         3.59933        0.09296       -1.94799
Mg         3.20626       -1.36855       -6.24984
C          1.06895        0.52270       -5.47080
C          0.86201        1.73444       -4.84359
C          2.10154        2.19234       -4.45342
C          3.01288        1.23732       -4.86359
N          2.38175        0.22082       -5.48153
C          4.49429        1.30792       -4.67702
N          4.95365        0.15292       -3.89199
C          6.41263        0.10945       -3.61649
H         -0.08829        2.23146       -4.68989
H          0.29925       -0.10441       -5.90002
H          2.31453        3.11879       -3.93679
H          4.72866        2.25675       -4.15476
H          4.95347        1.31080       -5.68458
C          6.88469        1.32589       -2.78769
C          6.68937       -1.16363       -2.80154
C          7.22896        0.03650       -4.92715
H          6.32536        1.39260       -1.83140
H          7.96813        1.23329       -2.55306
H          6.76408        2.27840       -3.34232
H          6.37836       -2.06573       -3.37056
H          7.77300       -1.25460       -2.56658
H          6.12581       -1.14099       -1.84408
H          6.90377       -0.82960       -5.54206
H          7.12254        0.96200       -5.52952
H          8.31262       -0.07598       -4.70600
