96
speciation1382.ct
Na         0.92177       -0.05214       -0.03407
Mg         3.32673        3.39690       -1.21716
C         -1.85229       -1.36913        0.22803
C         -2.03296        0.51788       -1.16435
O         -1.39823       -0.05214       -0.03407
C         -1.53089       -2.38298       -0.87955
C         -1.48815        1.91485       -1.41769
H         -1.33167       -1.70677        1.14902
H         -2.93799       -1.37404        0.46934
H         -1.85363       -0.06462       -2.09090
H         -3.12503        0.61288       -0.97105
H         -0.41209        1.85752       -1.67822
H         -2.03479        2.37523       -2.26932
H         -1.61620        2.55363       -0.51973
H         -0.45019       -2.35618       -1.12884
H         -1.79600       -3.40341       -0.53228
H         -2.12686       -2.19234       -1.79521
H          1.35729        5.09991       -1.58207
C          1.90358        4.96846       -3.67486
C          2.27836        4.95492       -2.18583
C          0.89168        3.89293       -4.09753
H          1.43833        5.95633       -3.88913
H          2.82277        4.88003       -4.29088
H         -0.04510        3.98941       -3.50586
H          0.63783        4.05619       -5.16861
C          1.44643        2.48351       -3.95721
H          2.95827        5.81203       -2.00636
H          2.37287        2.37085       -4.55964
H          1.66665        2.27993       -2.89427
H          0.69500        1.74909       -4.31954
C          5.53130        2.65271       -2.93597
C          6.14636        1.55490       -3.48189
C          5.45338        0.45075       -3.02000
C          4.46032        0.92889       -2.18143
N          4.51204        2.26823       -2.15214
C          3.38465        0.06655       -1.53442
N          3.29177       -0.05214       -0.03407
C          3.63736       -1.45311        0.41485
H          6.97968        1.56532       -4.17266
H          5.81000        3.69492       -3.11005
H          5.66519       -0.57813       -3.28353
H          3.49388       -0.91112       -2.02523
H          2.41339        0.42016       -1.91562
C          5.07478       -1.82791        0.01022
C          3.54078       -1.56544        1.94582
C          2.66131       -2.52686       -0.14844
H          5.74316       -1.10073        0.43945
H          5.35529       -2.83471        0.38934
H          5.25665       -1.81990       -1.07940
H          2.48986       -1.46267        2.27205
H          3.87300       -2.57019        2.29016
H          4.16872       -0.80792        2.45218
H          1.62837       -2.33822        0.20680
H          2.63002       -2.60514       -1.24945
H          2.96326       -3.53630        0.20908
Mg         3.89327        1.29422        1.25199
C          6.76476        2.08457        0.55812
C          6.93504        0.30859        2.11003
O          6.06235        1.33209        1.57544
C          7.58002        1.32190       -0.51346
C          8.12514        0.81655        2.95277
H          6.01241        2.66152       -0.00488
H          7.43800        2.83564        1.02930
H          6.36870       -0.41633        2.71961
H          7.40024       -0.30443        1.31662
H          7.80474        1.10982        3.97026
H          8.86992       -0.00891        3.05433
H          8.67630        1.65284        2.47573
H          6.95344        0.54883       -0.98190
H          7.93540        2.03709       -1.28631
H          8.49579        0.84072       -0.11330
C          1.60189        0.59022        3.51777
C          0.28344        1.05707        3.51573
C          0.16547        1.86176        2.41242
C          1.38417        1.83874        1.79788
N          2.29527        1.08817        2.46549
C          1.76917        2.59038        0.56748
N          3.16324        3.04859        0.66031
C          3.40484        4.15333        1.64324
H         -0.50071        0.83536        4.22896
H          1.99934       -0.09693        4.25095
H         -0.72574        2.40554        2.08456
H          1.03760        3.35495        0.24791
H          1.74917        1.88907       -0.28212
C          3.17367        3.73077        3.11827
C          4.87463        4.56752        1.56554
C          2.54283        5.38270        1.31559
H          3.77899        2.82589        3.35650
H          3.49334        4.52465        3.81836
H          2.10988        3.55668        3.35863
H          5.15950        4.84776        0.53015
H          5.07908        5.42215        2.24214
H          5.50705        3.74547        1.93503
H          2.80291        5.76978        0.31457
H          1.45948        5.14911        1.34679
H          2.71925        6.18413        2.05815
