110
speciation2369.ct
Na         0.95998        0.03548       -0.08450
Mg         4.25765       -1.32900        1.44389
C         -1.94705       -0.44208       -1.28488
C         -1.94057        1.29379        0.21317
O         -1.36002        0.03548       -0.08450
C         -1.39767       -1.80370       -1.65003
C         -1.33984        1.88642        1.47567
H         -3.04359       -0.58297       -1.14009
H         -1.75963        0.24983       -2.13701
H         -1.79811        2.02071       -0.61986
H         -3.02942        1.16156        0.41497
H         -0.26855        2.12065        1.31725
H         -1.87746        2.82796        1.72381
H         -1.45057        1.17926        2.32394
H         -1.57694       -2.51230       -0.81343
H         -1.91487       -2.19247       -2.55236
H         -0.31748       -1.71145       -1.88195
H          6.73359       -1.62783        0.12048
C          7.74968       -1.68562        1.92120
C          6.54359       -1.20109        1.10267
C          7.70182       -3.18768        2.12811
H          8.68997       -1.42180        1.37935
H          7.75822       -1.17230        2.90479
H          6.82272       -3.36213        2.73629
H          7.64853       -3.72173        1.15030
C          8.86223       -3.72799        2.94343
H          6.70674       -0.11198        1.01300
H          9.82038       -3.60880        2.39961
H          8.90814       -3.20201        3.92013
H          8.68325       -4.80898        3.13474
C          6.33969        0.56526       -3.54448
C          6.82710       -0.57886       -2.95339
C          5.81114       -1.07780       -2.17654
C          4.76190       -0.18809       -2.24722
N          5.06033        0.79558       -3.14845
C          3.45187       -0.38762       -1.52884
N          3.32998        0.03548       -0.08450
C          3.42603        1.53871        0.06842
H          7.80178       -1.02099       -3.10393
H          6.88050        1.19616       -4.22971
H          5.81997       -2.00693       -1.63679
H          3.28734       -1.45394       -1.59969
H          2.63280        0.03844       -2.14026
C          2.44761        2.30887       -0.86684
C          3.01297        1.87727        1.48702
C          4.84137        2.13058       -0.14633
H          1.39500        1.99847       -0.73421
H          2.47868        3.39793       -0.64655
H          2.71926        2.20374       -1.93536
H          3.78858        1.50330        2.14121
H          2.96894        2.97112        1.66970
H          2.03330        1.41764        1.72812
H          5.59499        1.63682        0.48360
H          5.17126        2.11217       -1.19123
H          4.84546        3.21120        0.11786
Na         4.48381       -3.60894       -0.51033
Mg         3.97389        2.33867       -3.91591
C          1.52151        3.75404       -4.86320
C          3.58579        4.63653       -5.62114
O          2.93549        3.76267       -4.70774
C          1.01220        3.38026       -6.26810
C          5.08246        4.58974       -5.37308
H          1.12213        3.00361       -4.15068
H          1.09571        4.73354       -4.55542
H          3.42846        4.32873       -6.67838
H          3.24734        5.68678       -5.45915
H          5.45319        3.55771       -5.54688
H          5.59923        5.28299       -6.06845
H          5.30155        4.89026       -4.32790
H          1.43907        2.41186       -6.59754
H         -0.09708        3.29617       -6.24740
H          1.25159        4.16880       -7.01350
H          4.94323       -1.11134        4.18926
C          3.13591        0.05466        4.40926
C          4.33651       -0.42206        3.56443
C          2.31831       -1.12397        4.88822
H          3.50450        0.61033        5.30262
H          2.49203        0.74818        3.83860
H          1.96898       -1.68023        4.00130
H          2.97415       -1.75576        5.52492
C          1.10621       -0.70923        5.71016
H          5.00018        0.46394        3.44912
H          1.41742       -0.11430        6.59459
H          0.40487       -0.11413        5.08831
H          0.58482       -1.62508        6.06152
C          2.24791       -4.77194        5.34120
C          2.53083       -6.09309        5.08596
C          3.25374       -6.13824        3.90304
C          3.41022       -4.88715        3.45305
N          2.82512       -3.97054        4.34373
C          4.08869       -4.50073        2.15453
N          3.40998       -3.46135        1.32900
C          2.03597       -3.89942        0.86834
H          2.21669       -6.93186        5.69444
H          1.66779       -4.39764        6.17555
H          3.61459       -7.03659        3.42096
H          4.29420       -5.41529        1.55833
H          5.05467       -4.12943        2.41274
C          0.96121       -3.95381        1.98269
C          1.53360       -2.91068       -0.15068
C          2.06311       -5.27558        0.14338
H          0.90545       -2.99851        2.53619
H         -0.04295       -4.14738        1.54472
H          1.09648       -4.80387        2.66965
H          2.12081       -2.98817       -1.07439
H          0.50711       -3.18064       -0.44404
H          1.54633       -1.90946        0.29763
H          2.79720       -5.26849       -0.69172
H          2.30772       -6.11051        0.82850
H          1.06639       -5.50722       -0.29516
