57
speciation259.ct
Na         1.02908       -0.24811       -0.27730
C         -0.93265       -2.53309        0.36874
C         -0.23460       -1.47659        2.30703
O          0.03588       -1.66247        0.92860
C         -0.63659       -2.80115       -1.09909
C          0.81707       -0.59458        2.95759
H         -0.87101       -3.52392        0.87452
H         -1.96529       -2.12101        0.45775
H         -1.23733       -1.02042        2.47384
H         -0.16802       -2.45961        2.82924
H          0.79722        0.42873        2.54373
H          0.63311       -0.54107        4.05114
H          1.81684       -1.02851        2.80329
H          0.40254       -3.16894       -1.21904
H         -1.34010       -3.57275       -1.48151
H         -0.76478       -1.88622       -1.70322
C         -1.06390        2.07498       -5.36325
C         -2.42096        1.81699       -5.33390
C         -2.72657        1.44412       -4.03760
C         -1.53997        1.49447       -3.32640
N         -0.53981        1.87153       -4.14339
C         -1.37413        1.17907       -1.84423
N         -0.00103        1.44779       -1.30875
C          0.11276        2.67883       -0.48540
H         -3.11232        1.89650       -6.16283
H         -0.49272        2.38520       -6.22924
H         -3.70224        1.17355       -3.65736
H         -1.62770        0.11574       -1.68722
H         -2.14885        1.75247       -1.31054
C         -0.74947        2.59018        0.79424
C          1.58518        2.81430       -0.06221
C         -0.27032        3.94594       -1.28577
H         -0.53514        1.65235        1.33415
H         -0.54290        3.45004        1.46717
H         -1.83732        2.61435        0.58905
H          2.24119        2.89956       -0.95380
H          1.73988        3.71699        0.56726
H          1.89436        1.93223        0.53094
H          0.36099        4.04573       -2.19367
H         -1.33390        3.92873       -1.60029
H         -0.12255        4.85731       -0.66375
Na         1.10930        1.87157       -3.02560
C          3.68307        0.23326       -1.46638
C          3.99179       -0.99042        0.54408
O          3.17497       -0.07652       -0.17406
C          3.98360       -0.97760       -2.36300
C          5.33958       -0.37581        0.97275
H          2.89865        0.82019       -1.98189
H          4.55523        0.91454       -1.39802
H          3.48151       -1.27264        1.47823
H          4.14524       -1.94827        0.00722
H          5.17202        0.50210        1.63262
H          5.93667       -1.12761        1.53145
H          5.94514       -0.05985        0.09859
H          3.09262       -1.63747       -2.42378
H          4.24708       -0.62643       -3.38212
H          4.85668       -1.55482       -1.99336
