110
speciation2267.ct
Na         5.17266        3.68818        2.97318
Mg         2.09823        4.86875       -1.38676
C          5.74295        4.13336        5.89937
C          4.56144        2.11159        5.89813
O          4.76437        3.35022        5.23182
C          7.15807        3.53033        5.88194
C          3.53994        1.24994        5.17451
H          5.79359        5.10495        5.36422
H          5.42315        4.37512        6.93684
H          5.48374        1.50177        5.98138
H          4.14995        2.31720        6.91233
H          3.95901        0.88172        4.21489
H          3.30034        0.36990        5.81289
H          2.60695        1.81907        4.98745
H          7.46721        3.28974        4.84311
H          7.87723        4.25880        6.31179
H          7.23112        2.61713        6.50808
H          3.57618        7.19557       -1.72696
C          4.74454        5.89830       -2.99657
C          3.87315        6.13167       -1.78087
C          4.07918        6.26813       -4.29645
H          5.68049        6.49307       -2.87405
H          4.99898        4.83766       -3.06741
H          3.18977        5.63060       -4.43927
H          3.80287        7.33522       -4.27453
C          5.09205        6.01229       -5.41835
H          4.61942        5.98206       -0.98560
H          5.99823        6.63952       -5.26487
H          5.40372        4.94394       -5.42557
H          4.63332        6.26528       -6.39312
C          6.75737        4.60546        0.31496
C          7.07390        4.28225       -0.98764
C          6.06570        3.46598       -1.44642
C          5.15170        3.34621       -0.42386
N          5.58975        4.03342        0.66586
C          3.96513        2.42834       -0.47070
N          2.93104        2.81811       -1.47803
C          1.82369        1.81499       -1.55245
H          7.98022        4.53910       -1.51942
H          7.40550        5.13580        0.99898
H          6.03049        2.96111       -2.40408
H          4.36466        1.41849       -0.68785
H          3.53806        2.38517        0.52948
C          1.14286        1.66518       -0.18889
C          0.80012        2.36232       -2.51959
C          2.24267        0.42742       -2.09356
H          1.02691        2.68033        0.17145
H          0.14700        1.17832       -0.26474
H          1.75316        1.12018        0.55334
H          1.25680        2.58180       -3.51251
H         -0.07192        1.68964       -2.66028
H          0.44347        3.25447       -2.01712
H          2.58546        0.49369       -3.14863
H          3.02769       -0.06089       -1.48953
H          1.36141       -0.25529       -2.07258
Na        -1.79636        3.15958        3.89579
Mg         3.82776        2.61020       -3.20725
C         -2.31915        0.00563        3.78710
C         -3.71337        1.33385        5.11026
O         -2.36797        1.07096        4.72846
C         -3.09136        0.25721        2.47885
C         -3.78508        2.52718        6.06200
H         -1.25108       -0.14369        3.54013
H         -2.66245       -0.95366        4.24364
H         -4.33426        1.61958        4.23325
H         -4.16057        0.45573        5.62414
H         -3.36422        3.43993        5.58893
H         -4.84967        2.73752        6.30645
H         -3.23810        2.31674        7.00317
H         -3.06172        1.32948        2.19491
H         -2.64393       -0.34127        1.65798
H         -4.15194       -0.06536        2.58549
H          0.92291        5.05671       -4.07743
C         -0.25371        6.75344       -3.43987
C          0.44028        5.39753       -3.13582
C         -1.30070        6.68743       -4.60341
H         -0.76641        7.09992       -2.52896
H          0.52855        7.47802       -3.72646
H         -1.69037        7.71720       -4.75362
H         -0.81881        6.36878       -5.55386
C         -2.51870        5.78713       -4.34758
H         -0.43816        4.75352       -2.96291
H         -2.24440        4.71581       -4.30122
H         -3.04449        6.08110       -3.41506
H         -3.24815        5.89639       -5.19039
C         -1.77120        6.35573        3.67417
C         -1.65092        7.49581        2.91184
C         -1.02090        7.12309        1.74236
C         -0.77173        5.76744        1.86336
N         -1.21242        5.29321        3.04518
C         -0.11036        4.93850        0.83354
N          1.25997        5.43253        0.57140
C          2.14846        5.59109        1.79196
H         -2.01292        8.49035        3.15451
H         -2.26991        6.28898        4.62480
H         -0.80673        7.74091        0.88705
H         -0.70337        4.95929       -0.10936
H         -0.13313        3.90582        1.22347
C          2.26103        4.29141        2.61713
C          3.48195        5.98529        1.29279
C          1.77263        6.76123        2.76339
H          2.71705        3.49285        2.02854
H          2.91055        4.44729        3.50549
H          1.28306        3.91935        2.97888
H          3.44358        6.95753        0.75507
H          4.25284        6.03703        2.09208
H          3.67926        5.17827        0.60562
H          1.61467        7.71274        2.20522
H          0.92522        6.54828        3.42716
H          2.59147        6.94475        3.49868
