96
speciation1565.ct
Na         1.05745       -1.34909        2.72894
Mg         2.21537        0.82547       -2.65124
C         -0.23966        0.44775       -1.28860
C          0.48364        2.67775       -1.00682
O          0.89076        1.32528       -1.21710
C         -1.27600        0.78862       -2.35682
C         -0.24356        2.89827        0.35049
H          0.14001       -0.55813       -1.51733
H         -0.74802        0.32111       -0.31007
H          1.37003        3.34383       -1.02730
H         -0.13467        3.05780       -1.84498
H          0.37993        3.47902        1.05906
H         -1.22335        3.40192        0.18749
H         -0.46695        1.96670        0.89855
H         -0.77014        0.83314       -3.33776
H         -2.06089        0.00358       -2.37033
H         -1.79850        1.74366       -2.14302
H          4.67407        1.67336       -3.60555
C          5.30362        1.81885       -1.52521
C          4.23513        1.96044       -2.62433
C          5.80546        0.38907       -1.30599
H          6.19364        2.45537       -1.76043
H          4.87511        2.19607       -0.57652
H          6.49071        0.40920       -0.43024
H          4.95683       -0.28610       -1.06843
C          6.60030       -0.14389       -2.49839
H          4.08645        3.06405       -2.71235
H          5.93746       -0.29603       -3.37350
H          7.41179        0.56683       -2.76958
H          7.06900       -1.11502       -2.23104
C          2.91746       -2.21844       -3.35036
C          3.13474       -3.51946       -2.91501
C          2.81186       -3.54284       -1.59226
C          2.38853       -2.26236       -1.25289
N          2.45826       -1.40846       -2.34993
C          2.06566       -1.95847        0.21660
N          0.65282       -1.72751        0.64023
C         -0.30618       -2.87349        0.72957
H          3.52231       -4.36705       -3.47815
H          3.12764       -1.90220       -4.36094
H          2.90498       -4.40609       -0.93448
H          2.67337       -1.08481        0.50727
H          2.49412       -2.76592        0.84658
C          0.33174       -4.04374        1.52209
C         -1.59414       -2.40573        1.48072
C         -0.73433       -3.31915       -0.67867
H          0.67686       -3.65131        2.50256
H         -0.30692       -4.92817        1.73992
H          1.18463       -4.44524        0.94686
H         -2.04576       -1.50791        1.00256
H         -2.38606       -3.19334        1.48406
H         -1.39324       -2.15135        2.54361
H         -1.20311       -2.47297       -1.22604
H          0.13432       -3.67318       -1.25729
H         -1.47325       -4.14903       -0.63629
Mg         2.86238        6.24474       -3.59431
C          2.27259        8.90567       -3.48982
C          3.34818        8.24635       -1.50733
O          2.52707        7.83174       -2.61005
C          3.52194        9.46293       -4.18589
C          3.64911        7.09246       -0.55407
H          1.59652        8.50227       -4.26976
H          1.70014        9.71581       -2.98184
H          4.33238        8.65712       -1.82010
H          2.79584        9.01287       -0.91183
H          4.34289        6.36858       -1.02883
H          4.14450        7.49284        0.36026
H          2.71676        6.57614       -0.24851
H          4.11179        8.63957       -4.63357
H          3.21430       10.16440       -4.98786
H          4.16382       10.03880       -3.48724
C          1.11976        0.73587       -5.59295
C          0.70557        1.44779       -6.70975
C          0.88990        2.76658       -6.41959
C          1.45113        2.82250       -5.15719
N          1.56816        1.55790       -4.60872
C          1.78335        4.15784       -4.53703
N          3.20195        4.56417       -4.59102
C          3.84269        5.04755       -5.87944
H          0.30393        1.06347       -7.64139
H          1.08782       -0.33941       -5.52222
H          0.65648        3.60930       -7.06413
H          1.13262        4.95636       -4.96636
H          1.46704        4.12206       -3.47491
C          3.03322        6.16010       -6.58756
C          5.23013        5.59398       -5.47214
C          4.12366        3.94205       -6.92520
H          2.84867        7.03011       -5.93054
H          3.58657        6.53006       -7.48320
H          2.06294        5.76871       -6.95820
H          5.81843        4.77524       -4.99841
H          5.80704        5.95556       -6.35010
H          5.15028        6.41825       -4.73474
H          4.80404        3.16014       -6.53196
H          3.20534        3.48263       -7.32658
H          4.64290        4.39809       -7.80554
