110
speciation2001.ct
Na         0.94807       -0.12429        0.01522
Mg         0.83359       -3.07203       -5.07905
C         -1.30248        1.34024        1.50499
C          0.80454        2.39178        1.87596
O          0.11877        1.18246        1.56206
C         -1.82194        2.52721        0.66820
C          0.60469        2.81667        3.34016
H         -1.70934        0.41663        1.04974
H         -1.73841        1.38079        2.52860
H          1.88972        2.22784        1.72792
H          0.54259        3.22127        1.18867
H          1.02039        2.04916        4.02592
H          1.12603        3.78042        3.52678
H         -0.46731        2.97254        3.58253
H         -1.33981        2.53720       -0.33059
H         -2.92156        2.44555        0.53619
H         -1.63964        3.49757        1.18121
H          1.23805       -4.71681       -7.16929
C          0.99803       -5.98576       -5.42237
C          1.55387       -4.72604       -6.11808
C         -0.53396       -6.07033       -5.47561
H          1.41938       -6.88874       -5.92233
H          1.33356       -5.99785       -4.35564
H         -0.87065       -6.10261       -6.53425
H         -0.85114       -7.01202       -4.97785
C         -1.21272       -4.90523       -4.76533
H          2.65951       -4.74545       -6.04668
H         -0.88059       -4.87605       -3.71036
H         -0.97544       -3.94299       -5.26464
H         -2.31320       -5.03556       -4.78673
C         -0.15051       -0.33581       -4.77461
C         -0.64860        0.55680       -3.82780
C         -0.61180       -0.09974       -2.62138
C         -0.11429       -1.35610       -2.88863
N          0.21742       -1.50218       -4.18816
C          0.11679       -2.45653       -1.90435
N         -0.25184       -2.05420       -0.53778
C          0.01436       -3.09443        0.50405
H         -0.98310        1.57049       -4.00437
H         -0.05763       -0.12045       -5.83589
H         -0.92119        0.29598       -1.66595
H          1.19207       -2.71312       -1.96473
H         -0.50023       -3.31018       -2.22175
C          1.51112       -3.46617        0.57232
C         -0.38775       -2.51475        1.87358
C         -0.81463       -4.38701        0.28121
H          2.12673       -2.55895        0.74528
H          1.69524       -4.17532        1.40910
H          1.85199       -3.98158       -0.34752
H         -1.46732       -2.25222        1.88953
H         -0.20533       -3.25591        2.68445
H          0.19899       -1.60096        2.10344
H         -1.90364       -4.19184        0.37886
H         -0.62178       -4.85534       -0.70352
H         -0.54062       -5.15144        1.04308
Na        -2.58194       -1.63409       -0.43259
Mg        -8.25477       -3.90207       -1.34703
C          3.45014       -0.21695       -1.78636
C          4.10597        0.30141        0.44399
O          3.04748        0.29845       -0.51476
C          4.14959       -1.59008       -1.75800
C          5.22352        1.31226        0.10726
H          2.53505       -0.32344       -2.39874
H          4.07629        0.51908       -2.33701
H          3.69591        0.58735        1.43265
H          4.52956       -0.71062        0.59489
H          4.84504        2.35373        0.17452
H          6.06574        1.19566        0.82337
H          5.65071        1.15514       -0.90488
H          3.53909       -2.32014       -1.19435
H          4.29359       -1.96464       -2.79252
H          5.16316       -1.52908       -1.30576
H        -10.66719       -4.33143       -0.49522
C        -10.99821       -3.67765       -2.53395
C        -10.26372       -3.57778       -1.20374
C        -10.49324       -2.62897       -3.53008
H        -10.85299       -4.69605       -2.95320
H        -12.08260       -3.51443       -2.34834
H        -10.62618       -1.60967       -3.10464
H         -9.41221       -2.79118       -3.73426
C        -11.27325       -2.71451       -4.83990
H        -10.41877       -2.56747       -0.76905
H        -11.14575       -3.71745       -5.29988
H        -12.35432       -2.53545       -4.65355
H        -10.90505       -1.94513       -5.55051
C         -5.48197        0.00717       -0.30049
C         -6.85894       -0.10519       -0.27180
C         -7.14098       -1.45165       -0.28723
C         -5.92214       -2.09182       -0.32904
N         -4.91203       -1.21398       -0.32740
C         -5.68944       -3.54058       -0.32486
N         -6.29505       -4.21840       -1.48681
C         -6.01069       -5.69855       -1.42279
H         -7.57717        0.70288       -0.24140
H         -4.92625        0.93469       -0.30225
H         -8.11783       -1.91049       -0.26403
H         -4.59102       -3.67177       -0.31571
H         -6.12339       -3.90010        0.62615
C         -6.55648       -6.35636       -0.12334
C         -6.69856       -6.39776       -2.60661
C         -4.48918       -6.00569       -1.52742
H         -7.64221       -6.15166       -0.00820
H         -6.41039       -7.45833       -0.14970
H         -6.02794       -6.01340        0.78969
H         -6.41246       -5.92168       -3.56616
H         -6.38981       -7.46906       -2.64942
H         -7.80299       -6.37461       -2.49848
H         -4.06384       -5.59710       -2.46727
H         -3.90477       -5.61967       -0.66875
H         -4.31384       -7.10404       -1.51174
