81
speciation815.ct
Na         1.09047        1.01922        0.33065
Mg         0.06955       -1.37714        0.04731
C         -2.06507       -3.36529       -0.24148
C          0.14970       -4.11533       -0.66655
O         -0.74318       -3.01678       -0.64816
C         -2.16844       -3.93973        1.17885
C         -0.21114       -5.17596       -1.72269
H         -2.68633       -2.46070       -0.32619
H         -2.55228       -4.04570       -0.97275
H          1.14499       -3.71876       -0.94448
H          0.26775       -4.56992        0.33720
H         -0.22625       -4.72851       -2.73931
H          0.54448       -5.98841       -1.70009
H         -1.19321       -5.65262       -1.52319
H         -1.70551       -3.24529        1.91135
H         -3.23755       -4.09278        1.44202
H         -1.68709       -4.93799        1.24203
H          4.37544        2.18950       -4.60447
C          6.27255        1.69651       -3.66322
C          4.79536        2.19182       -3.55152
C          6.45817        0.25766       -4.16615
H          6.83928        2.36772       -4.35019
H          6.75737        1.78352       -2.67358
H          5.89448       -0.43698       -3.51199
H          6.07629        0.17253       -5.20844
C          7.93947       -0.16569       -4.15763
H          4.85412        3.25022       -3.24908
H          8.55019        0.47669       -4.82941
H          8.36150       -0.10478       -3.13115
H          8.03976       -1.21758       -4.50594
C          1.38410        0.43226       -3.93226
C          0.37758       -0.36598       -4.39293
C         -0.49796       -0.49918       -3.36190
C         -0.06045        0.32027       -2.33656
N          1.23053        0.74440       -2.62663
C         -1.09006        0.65071       -1.21525
N         -0.87671        0.42133        0.22096
C         -2.07457        0.82753        1.10215
H          0.28613       -0.79114       -5.38018
H          2.22015        0.77159       -4.53703
H         -1.40265       -1.08936       -3.37475
H         -2.01017        0.09127       -1.48612
H         -1.30115        1.72609       -1.38334
C         -3.28063       -0.11879        0.92767
C         -1.80550        0.82443        2.64288
C         -2.55170        2.28392        0.81728
H         -3.00643       -1.12874        1.28721
H         -4.13871        0.19997        1.56419
H         -3.65888       -0.16383       -0.10866
H         -1.02772        1.55083        2.93965
H         -2.71507        1.13819        3.20547
H         -1.61366       -0.19465        3.02708
H         -1.72124        2.99875        0.99331
H         -2.95505        2.40698       -0.20355
H         -3.38616        2.56582        1.50226
Mg         3.08543        1.56471       -2.19206
C          5.55316        1.53788       -0.35396
C          6.18076        0.71338        0.54290
C          5.38715       -0.42416        0.64719
C          4.29285       -0.20426       -0.16853
N          4.40783        0.98296       -0.80674
C          3.13537       -1.15806       -0.33238
N          2.02160       -0.82005        0.57320
C          2.16365       -0.95612        2.04349
H          7.10370        0.87080        1.07784
H          5.93932        2.49618       -0.67248
H          5.56241       -1.28848        1.27921
H          3.44154       -2.20618       -0.24160
H          2.78082       -1.03676       -1.38292
C          3.07081        0.12303        2.67109
C          0.81117       -0.65262        2.60164
C          2.53681       -2.37977        2.46059
H          2.86505        1.12523        2.23342
H          2.90104        0.19894        3.76530
H          4.13959       -0.09495        2.61279
H          0.04949       -1.34641        2.15915
H          0.75264       -0.75030        3.70707
H          0.59642        0.37219        2.34669
H          1.74082       -3.08679        2.13815
H          3.49843       -2.68853        2.00751
H          2.62645       -2.43655        3.56848
