81
speciation643.ct
Na         1.04404       -0.05575        0.07037
Mg        -2.15899        1.57148       -0.68384
C         -4.54547        2.28475        1.32955
C         -4.01436        3.76731       -0.34232
O         -3.50298        2.69337        0.42361
C         -5.72120        1.52967        0.67019
C         -2.98073        4.26542       -1.30255
H         -4.10139        1.71659        2.15831
H         -4.95584        3.15065        1.89632
H         -4.88784        3.46271       -0.95809
H         -4.27487        4.62651        0.32068
H         -2.77186        3.45005       -2.02205
H         -3.37378        5.13290       -1.86689
H         -2.08028        4.57535       -0.73119
H         -5.37883        0.68903        0.03464
H         -6.39206        1.12836        1.46119
H         -6.34202        2.20612        0.04847
H         -0.60760        3.49036       -2.07202
C          0.70051        1.84927       -2.31720
C         -0.36911        2.58253       -1.49312
C          0.23362        1.29046       -3.66856
H          1.54813        2.54791       -2.49571
H          1.09328        1.01375       -1.73025
H          1.10868        0.79816       -4.15116
H         -0.55161        0.52087       -3.51908
C         -0.27748        2.37189       -4.61624
H          0.11082        2.91083       -0.54694
H         -1.19856        2.83833       -4.21191
H          0.49999        3.15115       -4.76830
H         -0.52134        1.91731       -5.59938
C         -3.94355        0.77172       -3.02937
C         -4.16640       -0.48071       -3.57176
C         -3.40379       -1.37483       -2.84262
C         -2.74999       -0.62681       -1.88489
N         -3.08925        0.66458       -1.99731
C         -1.78612       -1.14645       -0.83482
N         -1.32596       -0.05575        0.07037
C         -1.53359       -0.30474        1.51684
H         -4.81145       -0.71578       -4.40756
H         -4.37808        1.70262       -3.36700
H         -3.33759       -2.44465       -2.99160
H         -0.90691       -1.59551       -1.33978
H         -2.29885       -1.96330       -0.29257
C         -0.71700       -1.51193        2.03359
C         -1.03561        0.95567        2.24587
C         -3.01168       -0.59262        1.82351
H          0.36705       -1.39058        1.84349
H         -0.86945       -1.63031        3.12989
H         -1.04863       -2.45839        1.55623
H         -1.56232        1.86351        1.89317
H         -1.16796        0.86596        3.34508
H          0.04959        1.10064        2.04528
H         -3.62044       -0.00678        1.14138
H         -3.30802       -1.63449        1.59493
H         -3.25366       -0.41346        2.89368
Mg         4.64153        3.04485        0.65145
C          3.02456        2.88674        3.11144
C          2.41498        1.99174        3.96832
C          2.65714        0.73323        3.46010
C          3.41292        0.91648        2.31696
N          3.62911        2.22969        2.10451
C          3.93900       -0.18103        1.44351
N          3.41404       -0.05575        0.07037
C          3.87018       -1.09470       -0.89085
H          1.86210        2.22843        4.86655
H          3.03146        3.96259        3.22756
H          2.33338       -0.20684        3.88375
H          3.62573       -1.14570        1.88933
H          5.04709       -0.10858        1.45269
C          3.51295       -2.52179       -0.41359
C          3.14393       -0.86459       -2.22864
C          5.38611       -0.97765       -1.14963
H          2.41602       -2.61194       -0.25363
H          3.81405       -3.27211       -1.17691
H          4.03547       -2.79560        0.52395
H          3.34531        0.15605       -2.61818
H          3.47930       -1.60048       -2.99264
H          2.04841       -0.99573       -2.10620
H          5.63235        0.03966       -1.52387
H          5.97995       -1.17557       -0.23595
H          5.70741       -1.71718       -1.91520
