83
speciation585.ct
Na         1.35214       -2.46118        0.28334
Mg         3.21747       -0.04940       -1.03524
C         -1.00130       -3.64329       -1.46209
C          0.93595       -4.97666       -1.12371
O          0.34687       -3.70256       -1.00865
C         -2.05180       -4.24955       -0.56815
C          2.41112       -4.86357       -0.75703
H         -1.27160       -2.60263       -1.72770
H         -1.11793       -4.21265       -2.36371
H          0.44318       -5.69670       -0.44259
H          0.89792       -5.35217       -2.16385
H          2.51337       -4.51838        0.29132
H          2.90464       -5.85180       -0.85377
H          2.92632       -4.13758       -1.42540
H         -2.01491       -3.82070        0.44607
H         -3.03814       -4.02619       -1.03967
H         -1.92892       -5.35254       -0.56517
C          2.15362       -3.42300        3.11728
C          2.79289       -2.88092        4.21392
C          3.13208       -1.58693        3.89202
C          2.66786       -1.38101        2.61815
N          2.08326       -2.50116        2.15937
C          2.75129       -0.15351        1.80414
N          2.04493       -0.41539        0.54265
C          0.84575        0.38847        0.28595
H          2.99801       -3.39850        5.14005
H          1.76681       -4.42042        3.00644
H          3.63558       -0.85819        4.52243
H          3.81544        0.08942        1.59119
H          2.30577        0.68433        2.37648
C          1.27275        1.87022        0.12959
C          0.22664       -0.27854       -0.93833
C         -0.26052        0.30148        1.34940
H          2.13311        1.94987       -0.55955
H          0.43548        2.51815       -0.20133
H          1.61593        2.30166        1.09150
H         -0.10950       -1.27195       -0.65262
H         -0.67999        0.23055       -1.32246
H          0.97902       -0.48363       -1.71060
H         -0.57999       -0.75143        1.50745
H          0.04021        0.74651        2.31121
H         -1.14787        0.86795        0.97280
Na         1.60969       -1.83930       -3.47586
C          1.21450       -4.61347       -4.68453
C         -0.80213       -3.35579       -4.66718
O          0.36775       -3.74591       -3.92841
C          1.53394       -4.18580       -6.12954
C         -1.82026       -4.50287       -4.88662
H          2.18390       -4.66178       -4.14686
H          0.80754       -5.64734       -4.67500
H         -1.32048       -2.55445       -4.10291
H         -0.55448       -2.87712       -5.63410
H         -2.23579       -4.91949       -3.94805
H         -2.69089       -4.11911       -5.45750
H         -1.37638       -5.34299       -5.45541
H          1.93777       -3.15200       -6.14781
H          2.28836       -4.87634       -6.56044
H          0.64107       -4.25635       -6.78683
C          6.33059       -0.04761       -0.88533
C          7.30856       -0.05153       -1.86785
C          6.64974       -0.08495       -3.07870
C          5.30573       -0.10111       -2.76778
N          5.10789       -0.07217       -1.45083
C          4.17492       -0.10326       -3.72239
N          2.87840        0.10841       -3.01355
C          2.13748        1.28694       -3.68065
H          8.37971       -0.01392       -1.72018
H          6.50905       -0.01216        0.17850
H          7.08625       -0.07145       -4.06641
H          4.15430       -1.04554       -4.29834
H          4.42273        0.71229       -4.42527
C          1.94252        1.08948       -5.21548
C          0.68474        1.47510       -3.22056
C          2.86349        2.63404       -3.40358
H          1.38424        0.14766       -5.41145
H          1.33661        1.92617       -5.64025
H          2.87185        1.08125       -5.80670
H          0.64382        1.78798       -2.19692
H          0.18056        2.32330       -3.73259
H          0.06838        0.57518       -3.43439
H          3.07219        2.76054       -2.32515
H          3.82549        2.72751       -3.93862
H          2.23946        3.49919       -3.72339
