110
speciation2068.ct
Na         0.95171        0.05349       -0.06933
Mg         2.45658        0.07574       -5.11457
C         -1.87114        1.08796        0.76929
C         -1.81576       -1.24433        0.29727
O         -1.36829        0.05349       -0.06933
C         -1.58550        0.90474        2.26776
C         -3.31743       -1.45039        0.06670
H         -1.39229        2.03065        0.43882
H         -2.95301        1.25995        0.59033
H         -1.28850       -1.97492       -0.35112
H         -1.53213       -1.50647        1.33653
H         -3.56827       -1.29354       -1.00331
H         -3.59385       -2.48781        0.35120
H         -3.92524       -0.76416        0.69089
H         -0.51030        0.68964        2.43781
H         -1.85908        1.83143        2.81359
H         -2.19863        0.08385        2.69453
H         -0.17037       -0.98172       -5.12509
C         -0.71250        0.45058       -3.61654
C          0.34408       -0.46617       -4.28246
C         -1.23412        1.59783       -4.49357
H         -1.59401       -0.14980       -3.28341
H         -0.23549        0.88688       -2.71668
H         -0.35365        2.14832       -4.87739
H         -1.82112        1.22863       -5.36899
C         -2.09135        2.57646       -3.66393
H          0.56564       -1.24542       -3.52171
H         -3.17488        2.47703       -3.89161
H         -1.96213        2.41837       -2.57148
H         -1.76775        3.62063       -3.86479
C          4.98278        1.71512       -4.07358
C          5.83333        1.94958       -3.00959
C          5.31850        1.26152       -1.95018
C          4.14765        0.67987       -2.37893
N          3.93040        0.91630       -3.71780
C          3.25760       -0.17414       -1.53517
N          3.32171        0.05349       -0.06933
C          2.98533        1.45649        0.53723
H          6.75030        2.52760       -2.99353
H          5.17224        2.09261       -5.06340
H          5.75529        1.20370       -0.96159
H          3.53040       -1.23218       -1.73979
H          2.22159       -0.04461       -1.89487
C          1.60767        2.14304        0.11499
C          2.95218        1.23633        2.05638
C          3.96573        2.62479        0.28398
H          1.33706        1.97617       -0.95270
H          0.78618        1.84245        0.79841
H          1.54527        3.24464        0.24926
H          3.95850        0.92022        2.40170
H          2.65025        2.15288        2.60887
H          2.23178        0.42635        2.30605
H          4.98612        2.44536        0.65196
H          3.92246        2.97296       -0.77035
H          3.61822        3.52030        0.86259
Na         4.11170       -1.87362        1.06162
Mg         8.24935       -4.62105        4.93885
C          0.90305        1.23271       -7.50472
C          3.26930        1.57409       -7.53515
O          2.13997        1.17312       -6.76959
C          0.81492        0.47414       -8.85158
C          3.23403        3.07346       -7.87697
H          0.09259        0.83689       -6.87125
H          0.63517        2.29831       -7.67343
H          4.16389        1.39430       -6.91840
H          3.41089        0.95596       -8.44039
H          3.10270        3.67449       -6.95300
H          4.18273        3.36851       -8.36992
H          2.41047        3.31159       -8.58446
H          1.58259        0.77799       -9.59237
H         -0.16347        0.71535       -9.33041
H          0.85046       -0.62386       -8.70457
H          3.40729       -2.45057       -4.79488
C          4.75538       -1.95553       -6.40801
C          3.37261       -1.84424       -5.72600
C          5.88923       -1.39781       -5.54019
H          4.97119       -3.02924       -6.61727
H          4.73010       -1.41266       -7.37627
H          5.68868       -0.33487       -5.35327
H          5.93722       -1.94067       -4.57050
C          7.25260       -1.49435       -6.22875
H          2.63223       -2.31085       -6.40994
H          7.53538       -2.55362       -6.40505
H          7.23729       -0.95315       -7.19886
H          8.02810       -1.02644       -5.58331
C          4.55327       -5.05221        1.84531
C          5.13847       -5.96609        2.69393
C          5.86766       -5.24118        3.61766
C          5.72136       -3.91897        3.29641
N          4.90169       -3.80074        2.19257
C          6.32600       -2.74850        4.06592
N          7.80054       -2.87056        4.19040
C          8.48548       -1.88638        5.09288
H          5.02393       -7.04022        2.66076
H          3.90726       -5.29287        1.01044
H          6.43863       -5.63793        4.43737
H          6.04929       -1.79272        3.58314
H          5.86816       -2.80809        5.06975
C          7.94944       -1.93636        6.52965
C          9.99413       -2.24781        5.13734
C          8.37262       -0.45233        4.52638
H          8.04333       -2.96926        6.94747
H          8.53340       -1.24317        7.18106
H          6.89779       -1.61034        6.58238
H         10.44871       -2.20778        4.12455
H         10.55109       -1.53487        5.79695
H         10.13962       -3.27236        5.54634
H          8.81579       -0.38338        3.50624
H          7.32119       -0.12156        4.48097
H          8.91479        0.26623        5.18381
