110
speciation2062.ct
Na         1.16053        0.38891        0.34240
Mg        -3.73415       -2.18769        1.29085
C         -0.61312        3.01490        0.08168
C         -0.12033        2.01986       -2.01854
O          0.29262        2.18773       -0.66062
C         -2.06926        2.52134        0.12547
C         -0.14978        3.32518       -2.84344
H         -0.24066        3.07578        1.11610
H         -0.57899        4.06916       -0.27106
H          0.61732        1.35859       -2.51251
H         -1.09763        1.50018       -2.08960
H          0.85529        3.80059       -2.86991
H         -0.45948        3.10410       -3.88531
H         -0.88380        4.06544       -2.45405
H         -2.10419        1.48567        0.50537
H         -2.67179        3.17096        0.79813
H         -2.55749        2.56946       -0.87045
H         -3.75402       -0.91414       -1.51336
C         -2.48106       -2.72639       -1.57702
C         -3.16571       -1.55364       -0.82622
C         -2.69406       -3.93688       -2.48981
H         -1.66482       -2.21329       -2.13035
H         -2.30351       -3.33360       -0.68702
H         -3.49872       -4.59932       -2.12514
H         -2.89852       -3.63906       -3.51848
C         -1.38914       -4.81077       -2.45413
H         -2.35420       -0.85476       -0.49054
H         -0.47047       -4.27067       -2.79613
H         -1.17308       -5.20072       -1.42498
H         -1.49494       -5.71127       -3.08447
C         -2.42986       -4.17310        3.01146
C         -1.37672       -4.78488        3.64951
C         -0.28129       -4.01923        3.40369
C         -0.69548       -2.93658        2.65221
N         -2.04325       -3.06154        2.33724
C          0.36696       -1.85723        2.31290
N         -0.03506       -0.45025        2.31024
C          0.00735        0.11214        3.70188
H         -1.39732       -5.69189        4.23958
H         -3.42796       -4.55414        3.04055
H          0.72543       -4.21387        3.74692
H          1.11201       -1.99271        1.53431
H          1.22625       -2.06952        2.94099
C          1.39101       -0.00549        4.33765
C         -0.39121        1.58924        3.65242
C         -1.06668       -0.58744        4.62569
H          2.13895        0.46023        3.66144
H          1.41727        0.48579        5.32833
H          1.71064       -1.03960        4.56476
H         -1.40834        1.73043        3.22734
H         -0.38541        2.01224        4.68235
H          0.34807        2.14578        3.04714
H         -2.09904       -0.41131        4.26907
H         -0.92920       -1.67538        4.72995
H         -0.99964       -0.19477        5.66079
Na        -2.03567       -0.46873        1.66647
Mg         3.17731       -5.06162       -0.42501
C         -6.35677       -3.61716        1.90447
C         -4.87699       -4.72371        0.42743
O         -5.23664       -3.48427        1.02596
C         -6.17248       -4.56316        3.10463
C         -5.88598       -5.24016       -0.61445
H         -6.61350       -2.61553        2.30126
H         -7.25932       -3.90512        1.32410
H         -3.91061       -4.58678       -0.05251
H         -4.65636       -5.50960        1.16861
H         -6.03374       -4.51318       -1.44119
H         -5.51590       -6.19507       -1.04374
H         -6.86591       -5.47024       -0.15420
H         -5.91448       -5.60650        2.82697
H         -7.12546       -4.63643        3.66540
H         -5.41060       -4.15251        3.78836
H         -5.03390       -0.98392        3.35558
C         -5.46776        0.41280        1.72681
C         -4.52219       -0.51831        2.48448
C         -6.04790        1.49920        2.64937
H         -4.88292        0.89711        0.91181
H         -6.28956       -0.17954        1.27983
H         -6.64724        1.01704        3.45180
H         -5.23209        2.08892        3.12584
C         -6.94484        2.46024        1.87266
H         -3.72580        0.13677        2.88575
H         -6.35049        3.01075        1.11209
H         -7.75977        1.90137        1.36644
H         -7.39886        3.19844        2.56808
C          0.64025       -3.81841       -0.09229
C         -0.06569       -2.66491       -0.27291
C          0.62119       -1.83105       -1.05444
C          1.79304       -2.45982       -1.23511
N          1.83064       -3.69226       -0.68964
C          2.89505       -1.73618       -1.76082
N          3.11724       -0.63537       -0.78443
C          4.38083        0.07805       -1.04099
H         -0.94170       -2.35674        0.22732
H          0.34327       -4.63885        0.53676
H          0.35495       -0.82094       -1.33853
H          2.64249       -1.37972       -2.77359
H          3.75491       -2.43779       -1.79758
C          4.36815        0.70971       -2.45083
C          4.51243        1.18380        0.00898
C          5.60540       -0.86912       -0.88927
H          3.46237        1.34064       -2.57699
H          5.27293        1.32469       -2.61705
H          4.36422       -0.06934       -3.24567
H          4.59584        0.73689        1.02227
H          5.42970        1.78760       -0.18058
H          3.62851        1.85168       -0.02241
H          5.59292       -1.35635        0.11053
H          5.64869       -1.67042       -1.65512
H          6.55533       -0.30944       -0.99978
