95
speciation1449.ct
Na         0.92783        0.06920       -0.00185
Mg         5.35600        0.50970       -4.75979
C         -1.86989       -0.35824        1.26245
C         -1.98485       -0.64044       -1.07299
O         -1.39217        0.06920       -0.00185
C         -1.54308       -1.81795        1.60563
C         -1.39823       -0.16276       -2.39351
H         -1.37065        0.28011        2.02168
H         -2.95966       -0.15966        1.36227
H         -1.79380       -1.73167       -1.01720
H         -3.07868       -0.43720       -1.09630
H         -0.31505       -0.40624       -2.44388
H         -1.91712       -0.67691       -3.22943
H         -1.53465        0.93267       -2.50743
H         -0.45751       -2.01180        1.47973
H         -1.82509       -2.01855        2.66049
H         -2.12424       -2.52428        0.97823
H          4.84922       -0.11956       -7.37807
C          6.75028        0.88963       -7.60878
C          5.38932        0.74571       -6.92745
C          7.63276       -0.34329       -7.39932
H          6.60389        1.04662       -8.70342
H          7.24865        1.78629       -7.18724
H          7.74714       -0.53456       -6.31193
H          7.16192       -1.23295       -7.87472
C          9.01871       -0.12572       -8.00726
H          4.79274        1.65341       -7.15887
H          8.94622        0.05189       -9.10196
H          9.50978        0.75046       -7.53150
H          9.65160       -1.02115       -7.83333
C          7.01580        1.81411       -3.04767
C          7.49719        2.29848       -1.87349
C          6.45425        2.22004       -0.94439
C          5.32271        1.66970       -1.56851
N          5.73704        1.45014       -2.90748
C          3.87023        1.34420       -0.80821
N          3.29783        0.06920       -0.00185
C          3.74356        0.01552        1.41973
H          8.51893        2.63348       -1.73635
H          7.57569        1.69844       -3.97231
H          6.56733        2.51158        0.08281
H          3.75705        2.23785       -0.18109
H          3.10397        1.66032       -1.52879
C          3.51247        1.33813        2.19696
C          2.92637       -1.07630        2.13139
C          5.23638       -0.36261        1.49542
H          2.45133        1.65758        2.12670
H          3.76445        1.19961        3.27126
H          4.17352        2.16193        1.86124
H          3.06849       -2.06322        1.64445
H          3.23721       -1.16613        3.19660
H          1.84448       -0.82438        2.11340
H          5.42318       -1.34579        1.01682
H          5.86491        0.39230        0.98836
H          5.57386       -0.43056        2.55228
Na         4.15391       -2.23191       -0.71374
Mg         3.78569       -2.29379       -5.88898
H          2.44307       -2.57701       -8.09165
C          1.02329       -3.27904       -6.61093
C          2.44438       -3.16969       -7.15203
C          0.43434       -1.89599       -6.32162
H          0.39510       -3.79423       -7.37051
H          1.03428       -3.88683       -5.68112
H          1.04823       -1.38459       -5.55510
H          0.43479       -1.28291       -7.24978
C         -0.99754       -2.00492       -5.80819
H          2.83772       -4.18394       -7.37424
H         -1.64436       -2.49343       -6.56773
H         -1.02543       -2.59625       -4.86815
H         -1.39646       -0.98898       -5.60558
C          4.85395       -5.24321       -2.18782
C          5.28407       -5.97941       -3.27767
C          5.77229       -5.08920       -4.20204
C          5.62903       -3.82110       -3.67083
N          5.04918       -3.93072       -2.41393
C          6.10045       -2.54126       -4.45400
N          5.09412       -1.43935       -4.65689
C          4.26244       -1.20961       -3.45636
H          5.23175       -7.05374       -3.37962
H          4.39859       -5.63893       -1.30233
H          6.17610       -5.33965       -5.17285
H          7.00012       -2.14149       -3.94754
H          6.47551       -2.84245       -5.45437
C          5.33260       -1.07751       -2.29006
C          3.36479        0.03848       -3.76733
C          3.10169       -2.27957       -3.22910
H          6.27482       -0.62693       -2.61508
H          5.02589       -0.63814       -1.38058
H          5.87028       -1.95243       -1.92932
H          2.73738       -0.18777       -4.65277
H          2.65884        0.22441       -2.94118
H          3.77984        1.02147       -4.00519
H          2.87423       -2.85949       -4.14167
H          3.12164       -2.93220       -2.35747
H          2.13905       -1.83191       -2.89932
