95
speciation1817.ct
Na         1.26122        1.63170        0.25453
Mg         0.92934        0.10770       -2.78502
C         -1.18840       -0.09583       -4.54941
C          0.78371        0.36004       -5.74054
O          0.12779        0.41553       -4.48235
C         -1.23619       -1.61953       -4.68201
C          2.18677        0.93162       -5.64536
H         -1.69720        0.18835       -3.60461
H         -1.77583        0.39460       -5.35943
H          0.86746       -0.67313       -6.13477
H          0.22919        1.00144       -6.46898
H          2.82079        0.27525       -5.01448
H          2.63077        0.98332       -6.66579
H          2.15885        1.95339       -5.21717
H         -0.64788       -2.08902       -3.86672
H         -2.29063       -1.96121       -4.61498
H         -0.84399       -1.95454       -5.66259
H          5.04185        3.98157        2.47604
C          6.84796        3.61508        1.47045
C          5.32744        3.41952        1.56500
C          7.49010        2.73917        0.39281
H          7.06858        4.68783        1.28834
H          7.30148        3.33105        2.45054
H          7.29123        1.66728        0.61772
H          7.05514        2.98856       -0.59561
C          9.00591        2.94953        0.34671
H          5.13735        2.34460        1.77947
H          9.24281        4.01043        0.11842
H          9.47257        2.67815        1.31924
H          9.44979        2.30882       -0.44416
C         -0.31717        0.41991        2.73020
C         -0.84858       -0.81953        3.01354
C         -0.53627       -1.63688        1.94246
C          0.18046       -0.85797        1.05828
N          0.29406        0.38343        1.53357
C          0.76830       -1.27594       -0.26053
N          1.52977       -0.17034       -0.89726
C          3.00785       -0.28620       -0.90056
H         -1.40488       -1.08713        3.90132
H         -0.38407        1.30077        3.35481
H         -0.79959       -2.68096        1.83262
H         -0.06453       -1.56982       -0.93128
H          1.38950       -2.17160       -0.08104
C          3.48315       -1.54806       -1.65351
C          3.54938        0.94713       -1.64492
C          3.57550       -0.27155        0.53647
H          3.07461       -1.56183       -2.68562
H          4.59315       -1.56118       -1.71043
H          3.19357       -2.48719       -1.14367
H          3.32236        1.87623       -1.08373
H          4.65116        0.88800       -1.77529
H          3.08008        1.02957       -2.64839
H          3.25991        0.64923        1.07378
H          3.22754       -1.14761        1.12091
H          4.68696       -0.28660        0.51670
Na        -0.58713        6.98030       -1.73917
Mg         3.74639        4.03410        0.07307
H          5.65693        5.07499       -1.59116
C          3.89015        5.53092       -2.76180
C          4.68212        4.59826       -1.82175
C          3.58125        6.88572       -2.10893
H          4.47536        5.70564       -3.69312
H          2.94519        5.03279       -3.05607
H          3.03501        6.72745       -1.15849
H          4.52985        7.41745       -1.88188
C          2.72216        7.76565       -3.02094
H          4.88780        3.65673       -2.37485
H          3.25147        7.98721       -3.97117
H          1.75779        7.26190       -3.25168
H          2.49714        8.72734       -2.50958
C         -2.39128        4.41593       -1.68828
C         -2.35516        3.04937       -1.50090
C         -1.03452        2.72193       -1.25106
C         -0.32500        3.91377       -1.28774
N         -1.15673        4.93599       -1.56268
C          1.15622        4.12117       -1.07687
N          1.70538        3.68336        0.22596
C          1.15192        4.29775        1.47263
H         -3.19870        2.37227       -1.54560
H         -3.27770        5.00175       -1.90534
H         -0.65859        1.72730       -1.05840
H          1.38697        5.18769       -1.23294
H          1.66990        3.53884       -1.86590
C         -0.35106        4.00403        1.69276
C          1.88724        3.67498        2.66838
C          1.37791        5.81877        1.48396
H         -0.55858        2.92017        1.62041
H         -0.67061        4.35079        2.69944
H         -1.00516        4.54792        0.99328
H          2.95257        3.91061        2.61765
H          1.50857        4.08262        3.63150
H          1.77040        2.57109        2.68234
H          2.45824        6.05296        1.38185
H          0.82592        6.30797        0.65479
H          1.00547        6.25881        2.43424
