110
speciation2667.ct
Na         6.21689        3.46486        3.11763
Mg         1.29038        2.13359       -1.31355
C          0.97428       -0.66259       -1.34365
C          1.59088       -0.05735        0.86061
O          1.52523        0.33471       -0.50642
C         -0.30926       -1.39057       -0.94404
C          2.63125       -1.15741        1.08066
H          0.61589       -0.11402       -2.19527
H          1.77476       -1.37698       -1.63883
H          1.88693        0.80537        1.46982
H          0.61166       -0.36238        1.27562
H          3.62101       -0.83633        0.69435
H          2.71649       -1.38173        2.16399
H          2.32520       -2.08945        0.56121
H         -1.15720       -0.68618       -0.87579
H         -0.55603       -2.09697       -1.76704
H         -0.20499       -1.97871       -0.01481
H          3.40191        0.86402       -7.74059
C          3.60512        0.93490       -9.89730
C          2.94712        0.37524       -8.62583
C          3.39531        2.43737      -10.15615
H          4.70115        0.74761       -9.83128
H          3.21837        0.37394      -10.77385
H          3.93864        2.69118      -11.09410
H          2.31843        2.65839      -10.31043
C          3.94644        3.33523       -9.04863
H          3.20421       -0.70289       -8.56618
H          3.36467        3.20120       -8.11931
H          5.01590        3.11020       -8.85059
H          3.86113        4.40005       -9.35557
C          3.30352        3.75442        4.06578
C          1.97571        3.64446        3.72396
C          1.94476        3.22874        2.40974
C          3.25327        3.12364        1.98955
N          4.08608        3.43539        3.01186
C          3.70777        2.75162        0.58939
N          2.98663        3.47712       -0.50016
C          3.29758        4.99180       -0.50305
H          1.12690        3.85370        4.36075
H          3.67883        4.05930        5.03674
H          1.06816        3.05397        1.81353
H          4.80816        2.86075        0.50897
H          3.55494        1.67892        0.43678
C          4.81956        5.28333       -0.42763
C          2.82275        5.74487       -1.75642
C          2.60988        5.74967        0.66749
H          5.35421        4.77280       -1.25646
H          5.01291        6.37694       -0.52137
H          5.26101        4.98957        0.54406
H          1.73071        5.69085       -1.85736
H          3.01476        6.83631       -1.68090
H          3.39871        5.45301       -2.65477
H          1.52034        5.56790        0.67051
H          3.03408        5.52477        1.65779
H          2.75847        6.85003        0.57453
Na         2.76164        2.06306       -2.13479
Mg         0.84029        0.36421       -8.28906
C         -1.30791        1.99277        0.24054
C         -0.82635        4.16651       -0.61606
O         -0.42274        2.80133       -0.52426
C         -2.65162        1.75515       -0.44614
C         -1.24836        4.84481        0.70127
H         -0.83614        1.02497        0.41814
H         -1.43936        2.38815        1.26881
H          0.05321        4.74176       -0.91470
H         -1.60309        4.29611       -1.39937
H         -0.47434        4.71291        1.48299
H         -1.37614        5.93409        0.52763
H         -2.21589        4.45458        1.07625
H         -2.50407        1.22246       -1.40716
H         -3.29407        1.13603        0.21681
H         -3.17891        2.71156       -0.63558
H         -1.29407        0.36607       -9.89349
C         -0.13701       -0.93978      -11.16288
C         -0.22753        0.23271      -10.17258
C         -0.58237       -2.28206      -10.57355
H         -0.79840       -0.71316      -12.03038
H          0.90211       -1.02821      -11.54364
H         -1.63545       -2.21917      -10.22201
H         -0.53722       -3.05368      -11.37628
C          0.32362       -2.72375       -9.43151
H          0.08613        1.14852      -10.71358
H          1.37089       -2.81005       -9.79194
H          0.27884       -1.98988       -8.60172
H         -0.00848       -3.71297       -9.05345
C         -1.55555       -0.04219       -6.76528
C         -2.21631       -0.12807       -5.56092
C         -1.25618       -0.01685       -4.58046
C         -0.03774        0.14901       -5.22561
N         -0.23132        0.11709       -6.58324
C          1.28828        0.40439       -4.50723
N          1.27006        1.66429       -3.65354
C          1.08909        2.88449       -4.48345
H         -3.28615       -0.23490       -5.42080
H         -2.03760       -0.07340       -7.73391
H         -1.44443       -0.01627       -3.51592
H          2.11038        0.42680       -5.24490
H          1.54598       -0.50398       -3.93818
C         -0.36027        3.08632       -4.98560
C          1.35955        3.99340       -3.56775
C          2.10654        2.99727       -5.65002
H         -1.08342        2.94127       -4.15210
H         -0.48897        4.11254       -5.38865
H         -0.63357        2.44284       -5.83119
H          2.37987        3.80833       -3.21751
H          1.27909        4.98381       -4.06151
H          0.65596        3.91232       -2.73581
H          3.15346        2.98667       -5.26903
H          1.99309        2.19100       -6.39578
H          1.94925        3.94660       -6.20350
