95
speciation1813.ct
Na         5.99529       -2.24608       -0.97878
Mg         1.23427       -2.37465        6.03328
C          2.43454       -1.61963        8.51625
C          4.00722       -2.51593        6.96328
O          2.65116       -2.48134        7.39659
C          3.01445       -0.19564        8.40094
C          4.92731       -3.24201        7.95691
H          1.33859       -1.51928        8.63762
H          2.79291       -2.09806        9.45414
H          4.06778       -3.09000        6.02207
H          4.39641       -1.50781        6.72138
H          4.64803       -4.31443        8.03780
H          5.97876       -3.17635        7.60421
H          4.89065       -2.78372        8.96535
H          2.69187        0.28168        7.45936
H          2.65102        0.42896        9.24288
H          4.12498       -0.19520        8.45826
H          1.20576        1.18995        5.08341
C          3.03653        1.56880        4.03127
C          1.95865        0.58954        4.53634
C          2.49380        2.51427        2.96373
H          3.42291        2.17706        4.88639
H          3.89050        0.99075        3.61792
H          2.11414        1.91007        2.11910
H          1.66521        3.12341        3.38729
C          3.58407        3.44626        2.43428
H          2.47590       -0.04575        5.28316
H          3.99793        4.08181        3.24688
H          4.40773        2.85174        1.98391
H          3.15659        4.10738        1.65095
C          3.22526       -2.89633        3.25632
C          4.32328       -3.49493        2.68411
C          4.52372       -2.85630        1.50284
C          3.51479       -1.91286        1.38402
N          2.66912       -1.96394        2.45135
C          3.42380       -0.94928        0.24901
N          3.94668       -1.55449       -0.99892
C          3.94344       -0.67335       -2.18756
H          4.93428       -4.29362        3.08839
H          2.84676       -3.14436        4.21961
H          5.33506       -3.06566        0.82996
H          4.01883       -0.06221        0.54445
H          2.36035       -0.66493        0.14372
C          4.79924        0.58785       -1.94979
C          4.58067       -1.45699       -3.35956
C          2.50911       -0.25153       -2.56060
H          5.83490        0.30822       -1.65927
H          4.84081        1.20301       -2.87337
H          4.36580        1.23177       -1.15908
H          4.02510       -2.39352       -3.57738
H          4.61115       -0.84009       -4.28332
H          5.63218       -1.73550       -3.12931
H          1.86297       -1.13868       -2.72935
H          2.05765        0.36890       -1.75952
H          2.51669        0.37134       -3.47940
Na         2.79477       -3.32468       -1.32395
Mg         0.95922       -0.94557        3.18914
H         -1.11857        0.78478        2.04051
C         -1.04976       -0.34585        0.22328
C         -0.33735        0.21667        1.48338
C         -2.17121       -1.29648        0.58601
H         -1.50911        0.47723       -0.37538
H         -0.30379       -0.86171       -0.41822
H         -1.70439       -2.06164        1.16282
H         -2.94434       -0.78351        1.19741
C         -2.81976       -1.95963       -0.62399
H          0.33539        0.99184        1.05742
H         -3.24791       -1.19334       -1.30051
H         -2.07136       -2.56989       -1.17509
H         -3.63356       -2.63543       -0.27931
C         -1.49183        1.92846        5.68330
C         -1.73271        1.45097        6.95241
C         -1.68968        0.07220        6.88542
C         -1.41299       -0.27833        5.62186
N         -1.27252        0.85633        4.80044
C         -1.45662       -1.68883        5.10788
N         -0.20509       -2.30619        4.55091
C         -0.51508       -3.78116        4.23499
H         -1.94935        2.05291        7.82682
H         -1.48376        2.97057        5.39864
H         -1.90474       -0.60429        7.70539
H         -2.24964       -1.65894        4.33381
H         -1.83783       -2.28725        5.95448
C         -1.69963       -3.99522        3.27463
C          0.67096       -4.48547        3.56087
C         -0.84067       -4.61159        5.50846
H         -1.43711       -3.56956        2.32707
H         -1.85399       -5.07320        3.05237
H         -2.67018       -3.62707        3.66033
H          1.48887       -4.65552        4.27871
H          0.39896       -5.51340        3.23249
H          0.96872       -3.94315        2.64099
H         -0.03821       -4.51000        6.26662
H         -1.81692       -4.35505        5.96357
H         -0.93982       -5.69008        5.24726
