95
speciation1531.ct
Na         1.12830        1.71530        0.16966
Mg         3.37999       -0.47440       -1.39757
C          5.55620       -2.17609       -2.07504
C          3.49567       -3.29285       -1.66033
O          4.30447       -2.15987       -1.39219
C          5.52726       -2.44232       -3.58519
C          4.08080       -4.57630       -1.06935
H          6.01935       -1.18862       -1.94192
H          6.25249       -2.87535       -1.56801
H          2.53418       -3.15273       -1.14835
H          3.25942       -3.39814       -2.73908
H          4.22519       -4.45655        0.02523
H          3.37976       -5.41780       -1.24813
H          5.05066       -4.83161       -1.54107
H          4.87947       -1.71618       -4.10494
H          6.55722       -2.33383       -3.98714
H          5.19336       -3.47366       -3.81286
H          2.10707        0.90888       -3.36605
C          1.46150       -0.92591       -4.24449
C          2.47361       -0.12755       -3.39180
C          0.00698       -0.98412       -3.73890
H          1.42765       -0.45576       -5.25502
H          1.83813       -1.96245       -4.37375
H         -0.60029       -1.55638       -4.47288
H         -0.05781       -1.54263       -2.80634
C         -0.63988        0.38612       -3.54673
H          3.41027       -0.09909       -3.97976
H         -0.08728        0.98285       -2.79459
H         -0.67579        0.93593       -4.50976
H         -1.67829        0.25270       -3.17228
C         -2.01305        0.96025        0.17768
C         -2.74182       -0.20914        0.09235
C         -1.83072       -1.23866       -0.02936
C         -0.58181       -0.65455       -0.00480
N         -0.68792        0.67603        0.11533
C          0.73813       -1.35744       -0.07736
N          1.87773       -0.42523        0.12926
C          2.42858       -0.55128        1.50283
H         -3.82036       -0.29846        0.12247
H         -2.41185        1.95563        0.28394
H         -2.05629       -2.29450       -0.10852
H          0.84404       -1.86074       -1.03509
H          0.70479       -2.17926        0.66285
C          3.05699       -1.93313        1.80963
C          3.53949        0.44619        1.57136
C          1.36454       -0.22747        2.58713
H          2.31838       -2.75049        1.88930
H          3.58752       -1.89594        2.78773
H          3.80286       -2.20156        1.04000
H          4.30986        0.08977        0.88180
H          3.97726        0.54239        2.58442
H          3.16373        1.40055        1.19705
H          0.88537        0.75236        2.40352
H          0.56064       -0.99183        2.61808
H          1.82830       -0.21063        3.59836
Na        -0.08315        2.97166        2.08359
Mg         0.47745        4.93345        1.22105
H          5.59617        0.98839       -2.23110
C          6.11803        1.50679       -0.20753
C          5.04743        1.14201       -1.27779
C          7.14029        0.39107        0.04425
H          6.67167        2.41432       -0.53946
H          5.62735        1.78978        0.74330
H          6.62152       -0.55301        0.30943
H          7.73451        0.23126       -0.88333
C          8.08814        0.74423        1.19149
H          4.44134        2.04039       -1.40783
H          7.51971        0.82396        2.14604
H          8.61287        1.70706        1.00083
H          8.85042       -0.05551        1.30962
C          2.32327        2.67693        4.05165
C          3.67882        2.88121        4.19542
C          4.11810        3.45842        3.02283
C          3.00657        3.57353        2.20732
N          1.91562        3.10253        2.84055
C          3.03176        4.06786        0.78733
N          1.71798        3.88732        0.14037
C          1.59482        4.43201       -1.23581
H          4.28342        2.61536        5.05366
H          1.66979        2.22194        4.78533
H          5.13732        3.72955        2.77920
H          3.79358        3.48520        0.23768
H          3.33860        5.12988        0.81986
C          2.52231        3.70602       -2.21678
C          0.14350        4.20851       -1.68920
C          1.90202        5.94491       -1.29599
H          2.35161        2.62092       -2.13047
H          2.32945        4.02418       -3.26435
H          3.58412        3.94254       -2.00308
H         -0.56026        4.73393       -1.00955
H         -0.01362        4.59268       -2.72107
H         -0.10662        3.12651       -1.67984
H          1.24563        6.50491       -0.59893
H          2.96141        6.15992       -1.04731
H          1.74306        6.32987       -2.32665
