95
speciation1285.ct
Na         0.91131        0.01174       -0.04468
Mg         5.00607        2.98988       -4.56159
C         -1.83072       -0.99149        0.87443
C         -1.91109       -0.20880       -1.36753
O         -1.40869        0.01174       -0.04468
C         -1.48727       -2.43822        0.47697
C         -3.42887       -0.09820       -1.53337
H         -1.31742       -0.78261        1.83503
H         -2.91525       -0.89641        1.09464
H         -1.49008        0.57455       -2.03135
H         -1.58960       -1.18821       -1.77042
H         -3.76804        0.94070       -1.34911
H         -3.67908       -0.36531       -2.58547
H         -3.97847       -0.80517       -0.88142
H         -0.40648       -2.53188        0.24461
H         -1.73546       -3.12044        1.31681
H         -2.08671       -2.78106       -0.39263
H          3.52974        3.40907       -6.78633
C          4.30694        5.41394       -6.57343
C          3.75944        4.12611       -5.96765
C          5.59790        5.17738       -7.35501
H          3.54294        5.84592       -7.26133
H          4.48944        6.13673       -5.75094
H          6.35720        4.72226       -6.68482
H          5.40770        4.48673       -8.20717
C          6.13647        6.50077       -7.89378
H          2.79146        4.39072       -5.49233
H          5.40547        6.96272       -8.59239
H          6.32519        7.20276       -7.05321
H          7.08972        6.32910       -8.43495
C          0.17669       -0.30687       -8.64820
C         -1.03520       -0.92071       -8.24920
C         -1.18932       -1.21718       -6.83684
C         -0.10417       -0.72167       -6.16738
N          0.95676       -0.09515       -7.60264
C          1.31375       -0.29724       -2.44522
N          3.28131        0.01174       -0.04468
C          3.63883       -0.83978        1.08562
H         -1.81332       -1.08045       -8.98816
H          0.40002        0.12545       -9.62465
H         -2.06667       -1.71641       -6.42998
H          0.85623        0.66356       -2.35131
H          0.48035       -0.76737       -1.95840
C          4.30849       -2.13351        0.62182
C          4.66674       -0.01855        1.90461
C          2.42281       -1.10867        1.97602
H          5.20436       -1.90015        0.00472
H          4.64773       -2.71867        1.50626
H          3.60592       -2.74759        0.02647
H          4.22327        0.94801        2.23801
H          5.01358       -0.56487        2.80717
H          5.55813        0.23226        1.28599
H          1.96761       -0.14704        2.30329
H          1.66413       -1.70279        1.43189
H          2.73114       -1.66795        2.88684
Na         2.57516        0.50861       -5.97994
Mg         3.94464       -0.85756       -1.70734
H          6.85479        4.95839       -3.84229
C          7.77473        3.26713       -2.82994
C          6.52100        4.06985       -3.26497
C          8.74541        4.07512       -1.93106
H          7.45569        2.36255       -2.27142
H          8.31634        2.94772       -3.74476
H          9.07727        4.99420       -2.46003
H          8.23179        4.37463       -0.99119
C         10.00025        3.27025       -1.55392
H          5.99425        4.43600       -2.35585
H          9.73597        2.35119       -0.98808
H         10.57067        2.98319       -2.46297
H         10.66982        3.88485       -0.91098
C          4.51020       -3.05357       -3.60672
C          5.03472       -3.36788       -4.84805
C          5.50975       -2.19597       -5.39228
C          5.28777       -1.21205       -4.44633
N          4.60796       -1.72685       -3.37000
C          5.42977        0.28167       -4.70032
N          4.19356        1.11238       -4.35724
C          3.38039        0.88994       -3.43773
H          5.03687       -4.34022       -5.32310
H          4.04560       -3.75568       -2.92871
H          5.92188       -2.06647       -6.38585
H          6.32675        0.67096       -4.18382
H          5.63898        0.43941       -5.78468
C          4.49537        1.13014       -2.27741
C          2.38890        2.09724       -3.61085
C          2.78411       -0.46639       -4.25246
H          5.04363        2.07505       -2.46354
H          4.35688        1.35891       -1.24862
H          5.31825        0.36912       -2.26163
H          1.73619        1.91296       -4.49841
H          1.71505        2.38650       -2.79119
H          2.92593        3.04419       -3.76313
H          3.20419       -1.02939       -5.12028
H          3.07373       -0.62531       -3.36192
H          2.14595       -1.39821       -4.16380
