68
speciation89.ct
Na         2.37477        0.27337        1.33755
Mg         1.17776       -0.23925       -0.06440
C          2.57864        1.20251        4.24821
C          4.62316        0.27483        3.50186
O          3.23636        0.45155        3.25032
C          1.08755        1.23518        3.95300
C          5.43154        1.57849        3.59631
H          2.71224        0.72978        5.24871
H          2.92929        2.25487        4.25163
H          4.77682       -0.34380        4.41380
H          5.03605       -0.31994        2.66293
H          5.14323        2.16842        4.49047
H          6.51086        1.33915        3.69367
H          5.30188        2.19976        2.69120
H          0.66875        0.20707        3.96255
H          0.57034        1.84585        4.72343
H          0.91230        1.69483        2.95820
C         -1.81053       -1.10085        0.29257
C         -2.93143       -0.29283        0.31227
C         -2.48996        1.00232        0.11391
C         -1.12238        0.91235       -0.01170
N         -0.70782       -0.34529        0.10339
C         -0.17405        2.01679       -0.33307
N          1.20097        1.74148        0.15360
C          2.19756        2.78730       -0.21963
H         -3.96290       -0.60130        0.44821
H         -1.80559       -2.17616        0.41448
H         -3.09252        1.89984        0.05375
H         -0.58134        2.97047        0.04780
H         -0.17022        2.03799       -1.43985
C          1.83699        4.12457        0.46517
C          3.56835        2.36893        0.31162
C          2.33027        2.98831       -1.74841
H          1.75250        3.97846        1.56447
H          2.61938        4.88963        0.27436
H          0.88369        4.54546        0.09089
H          3.88008        1.42145       -0.16369
H          4.34021        3.14094        0.09737
H          3.51400        2.23573        1.40687
H          2.67165        2.05775       -2.24450
H          1.38505        3.31900       -2.21771
H          3.08264        3.77951       -1.96118
Na         5.74991        0.54666        0.55856
C          6.77516       -1.58239       -1.33259
C          6.49185       -2.53505       -2.28790
C          5.13479       -2.49485       -2.49188
C          4.64439       -1.52689       -1.64170
N          5.65443       -0.95952       -0.94084
C          3.19949       -1.17575       -1.49281
N          2.72120       -1.33390       -0.10768
C          2.65612       -2.67523        0.52127
H          7.20087       -3.19105       -2.77265
H          7.75154       -1.35665       -0.93052
H          4.56132       -3.12007       -3.16798
H          2.56675       -1.77336       -2.18498
H          3.05943       -0.12235       -1.78932
C          4.06941       -3.17367        0.88718
C          1.86045       -2.53036        1.82810
C          1.95059       -3.71730       -0.37110
H          4.60733       -2.40233        1.47812
H          4.01722       -4.10700        1.48293
H          4.66926       -3.42114       -0.00546
H          0.83084       -2.16956        1.62359
H          1.79515       -3.50254        2.36178
H          2.35662       -1.80741        2.50539
H          0.91317       -3.39897       -0.60836
H          2.50436       -3.88169       -1.31847
H          1.90466       -4.69789        0.15259
