81
speciation603.ct
Na         1.60175        7.35509       -1.13632
Mg         4.15087        2.61180       -3.15924
C          7.00336        3.36132       -2.23642
C          5.92286        5.27584       -2.96826
O          5.84372        3.84333       -2.91304
C          8.31446        3.66262       -3.01292
C          4.61035        5.91008       -3.29763
H          7.07638        3.77297       -1.20633
H          6.91336        2.27031       -2.11763
H          6.31398        5.76278       -2.04571
H          6.58632        5.54438       -3.81532
H          3.87004        5.98566       -2.53140
H          4.73423        6.89991       -3.78527
H          4.16141        5.18924       -3.91175
H          8.51090        4.75384       -3.09387
H          9.18877        3.23301       -2.48377
H          8.28226        3.25347       -4.04290
H          5.41367        0.31941       -2.01751
C          6.00153       -0.36146       -3.97872
C          4.99668        0.33774       -3.04409
C          7.24172        0.47819       -4.17080
H          6.26120       -1.36790       -3.58397
H          5.57237       -0.57793       -4.97228
H          6.92969        1.49753       -4.47641
H          7.80663        0.51075       -3.21464
C          8.10767       -0.09749       -5.27790
H          4.19485       -0.42161       -3.07293
H          8.40959       -1.13703       -5.03313
H          7.53594       -0.09724       -6.23287
H          9.00765        0.53684       -5.40502
C          4.49619        6.89520        0.03415
C          5.36782        5.88977        0.41532
C          4.71219        4.68999        0.21946
C          3.47825        5.02042       -0.30458
N          3.33202        6.35851       -0.38006
C          2.38115        4.09767       -0.71398
N          2.79703        2.80228       -1.32347
C          1.61827        1.85230       -1.30533
H          6.37387        6.02634        0.77906
H          4.70210        7.95725        0.03167
H          5.09548        3.69702        0.40683
H          1.88521        3.94172        0.26137
H          1.66728        4.64048       -1.36649
C          0.63014        2.25953       -2.40762
C          2.12533        0.46138       -1.60349
C          0.83806        1.71546        0.05113
H          1.18148        2.39567       -3.36043
H         -0.14740        1.48036       -2.54896
H          0.11929        3.20866       -2.15076
H          2.86448        0.13050       -0.83405
H          1.30452       -0.28672       -1.64340
H          2.53080        0.53496       -2.60599
H          1.50084        1.40462        0.88857
H          0.27445        2.62385        0.34702
H          0.04574        0.93571       -0.04233
Mg         1.50636        6.65251       -7.57152
C          4.49686        6.70918       -7.58966
C          5.57043        6.07705       -7.01260
C          5.05798        5.12308       -6.17045
C          3.66820        5.20404       -6.25319
N          3.33981        6.17650       -7.12116
C          2.63292        4.34850       -5.52413
N          3.11223        2.98048       -5.21036
C          3.25095        2.14066       -6.47334
H          6.61988        6.28454       -7.18562
H          4.54044        7.50675       -8.30538
H          5.63614        4.43903       -5.56884
H          1.69033        4.34481       -6.10016
H          2.26250        4.84161       -4.60415
C          4.45096        2.53488       -7.38232
C          3.47458        0.72018       -6.03980
C          1.98281        2.13575       -7.36824
H          5.40921        2.54687       -6.82401
H          4.56913        1.81779       -8.22166
H          4.28169        3.49059       -7.91532
H          2.57226        0.26119       -5.58967
H          3.85198        0.07405       -6.86608
H          4.22486        0.84478       -5.28618
H          1.09557        1.80446       -6.78925
H          1.77456        3.12527       -7.82376
H          2.11946        1.44108       -8.22658
