95
speciation1178.ct
Na         2.24961       -0.41253        1.70224
Mg         2.18181        4.58297       -0.63848
C          0.38678       -0.06632        4.26051
C          0.27461       -2.19276        3.24683
O          0.39601       -0.79673        3.04349
C          1.48661       -0.45476        5.26081
C          0.36115       -2.91251        1.90722
H          0.53502        1.00088        3.99608
H         -0.61420       -0.13223        4.74210
H          1.10290       -2.60129        3.86134
H         -0.71146       -2.42992        3.70372
H          1.35119       -2.72753        1.43724
H          0.24932       -4.00692        2.06523
H         -0.43920       -2.56231        1.22336
H          2.48240       -0.42447        4.77177
H          1.47860        0.25695        6.11254
H          1.30983       -1.46289        5.69068
H          3.24115        6.82825        0.45080
C          5.03391        6.11218       -0.53573
C          3.70085        5.85819        0.17776
C          4.85657        6.88358       -1.84101
H          5.69176        6.69898        0.14444
H          5.53781        5.14612       -0.74538
H          4.20592        6.29923       -2.52219
H          4.36999        7.86176       -1.63724
C          6.20896        7.13463       -2.51070
H          3.93608        5.31923        1.12085
H          6.85854        7.75459       -1.85559
H          6.72810        6.17612       -2.71736
H          6.06028        7.66948       -3.47156
C          5.01309       -0.97780       -0.03456
C          5.99682       -0.44622       -0.83783
C          5.71336        0.89764       -0.96013
C          4.56425        1.12210       -0.22132
N          4.14317       -0.02005        0.33209
C          3.85232        2.42029       -0.03433
N          2.92000        2.73096       -1.12779
C          1.70094        1.91012       -1.31364
H          6.82525       -0.98147       -1.28359
H          4.93069       -2.01445        0.26474
H          6.28503        1.62023       -1.51734
H          3.38170        2.49376        0.96895
H          4.64564        3.19128       -0.04335
C          0.84070        1.97127       -0.03673
C          0.95178        2.51738       -2.50765
C          1.97665        0.45014       -1.73954
H          0.65255        3.02652        0.25116
H         -0.12605        1.44577       -0.16591
H          1.37185        1.49002        0.80892
H          1.55111        2.41691       -3.43762
H         -0.03316        2.02469       -2.65700
H          0.79363        3.58205       -2.37707
H          2.74608        0.42008       -2.54349
H          2.26172       -0.20662       -0.91478
H          1.05459       -0.02846       -2.13347
Na         6.24466        0.28890       -4.03550
Mg         4.01996        2.40216       -2.75324
H          0.44637        5.93975       -2.27088
C         -0.33286        6.85012       -0.48856
C          0.29806        5.65363       -1.20733
C         -0.67179        6.56861        0.97600
H          0.34231        7.72754       -0.56437
H         -1.28303        7.10748       -1.01886
H         -1.16460        7.47086        1.40061
H         -1.38274        5.71808        1.05548
C          0.57830        6.26903        1.78996
H         -0.47048        4.84891       -1.17510
H          1.06183        5.33983        1.41685
H          1.28784        7.11756        1.69836
H          0.31280        6.13102        2.85640
C          5.50463       -0.17001       -8.15493
C          4.87329        0.85164       -8.83121
C          4.26680        1.65904       -7.88327
C          4.54164        1.16340       -6.66593
N          5.31378       -0.01295       -6.76997
C          4.05476        1.75361       -5.36137
N          5.11991        2.07336       -4.37869
C          6.07738        3.16694       -4.73836
H          4.84945        0.97377       -9.90789
H          6.06863       -0.97132       -8.61437
H          3.68713        2.55015       -8.09186
H          3.40013        0.98791       -4.89906
H          3.41549        2.64100       -5.54210
C          5.34541        4.49716       -4.99756
C          7.04332        3.35748       -3.55932
C          6.95361        2.82607       -5.97116
H          4.73551        4.77234       -4.11661
H          6.07635        5.31119       -5.19839
H          4.68372        4.43379       -5.88525
H          7.60710        2.41927       -3.36523
H          7.78716        4.15423       -3.78492
H          6.49331        3.64883       -2.64184
H          7.48001        1.85765       -5.83243
H          6.38277        2.80361       -6.91274
H          7.71981        3.61520       -6.13388
