110
speciation2318.ct
Na         1.04514       -0.22106       -0.06819
Mg         0.57878        3.19230       -5.24478
C          3.82426        0.10016        1.02805
C          3.61170        1.20654       -1.06585
O          3.18630        0.11408       -0.25128
C          3.75475        1.41754        1.82483
C          5.07030        1.06550       -1.54514
H          3.32024       -0.68007        1.62819
H          4.87816       -0.24571        0.94900
H          2.97245        1.25414       -1.97096
H          3.46094        2.18136       -0.56361
H          5.16582        0.23019       -2.27007
H          5.39480        2.00605       -2.04037
H          5.77889        0.89083       -0.71067
H          2.70631        1.77433        1.87887
H          4.13934        1.25848        2.85373
H          4.39710        2.20615        1.37540
H         -0.06346        2.82195       -8.14422
C         -1.34381        1.43796       -7.11980
C          0.02580        2.10388       -7.29186
C         -2.35905        2.53291       -6.81506
H         -1.67282        0.86856       -8.02652
H         -1.26316        0.71696       -6.28024
H         -1.95079        3.16914       -6.00383
H         -2.50954        3.15438       -7.72758
C         -3.69531        1.98316       -6.34467
H          0.71803        1.31293       -7.66238
H         -4.17518        1.35797       -7.12611
H         -3.54467        1.38275       -5.42218
H         -4.35808        2.84157       -6.10552
C         -0.08347        3.80193       -2.26998
C         -0.43278        3.29055       -1.03391
C         -0.47829        1.93016       -1.17769
C         -0.13842        1.66322       -2.48460
N          0.07861        2.81293       -3.18943
C         -0.01023        0.28375       -3.03778
N         -0.20524       -0.77271       -1.99250
C         -0.04593       -2.14800       -2.43396
H         -0.63158        3.85016       -0.12623
H          0.03703        4.85786       -2.46143
H         -0.72575        1.19590       -0.42295
H          1.00924        0.24903       -3.45817
H         -0.77508        0.20799       -3.83721
C          1.46698       -2.40349       -2.67156
C         -0.76216       -2.95841       -1.31129
C         -0.75198       -2.44227       -3.77745
H          2.09699       -2.20187       -1.78205
H          1.67452       -3.41046       -3.08285
H          1.83071       -1.71044       -3.46288
H         -1.80741       -2.58498       -1.19609
H         -0.89183       -4.04060       -1.49009
H         -0.31102       -2.76875       -0.31653
H         -1.85214       -2.31865       -3.71736
H         -0.35562       -1.79429       -4.58697
H         -0.52112       -3.48251       -4.09151
Na        -2.53534       -0.62567       -1.58514
Mg         0.49865        1.83231        2.81204
C         -5.53865       -0.10506       -2.35281
C         -5.12190        0.44340       -0.14961
O         -4.81628       -0.48174       -1.18638
C         -5.26142       -1.03448       -3.53401
C         -4.37709        0.12195        1.14820
H         -6.62971       -0.18422       -2.14581
H         -5.29409        0.93547       -2.67016
H         -4.87532        1.49056       -0.44033
H         -6.20592        0.36787        0.09353
H         -3.28947        0.32369        1.05280
H         -4.77345        0.77023        1.96259
H         -4.53397       -0.93524        1.44785
H         -5.42795       -2.09506       -3.25384
H         -5.96315       -0.78282       -4.36173
H         -4.22676       -0.90591       -3.91516
H          2.41030        5.09951       -6.53888
C          3.54271        3.94868       -5.11109
C          2.27127        4.67667       -5.51586
C          3.73622        2.72357       -5.99621
H          4.43792        4.61322       -5.17799
H          3.41766        3.63208       -4.05460
H          2.80737        2.11446       -5.98014
H          3.94132        3.03838       -7.04451
C          4.87821        1.86607       -5.47140
H          2.17437        5.55557       -4.83650
H          5.83098        2.43677       -5.45879
H          4.63769        1.53556       -4.43927
H          4.99471        0.97023       -6.11433
C          1.62212        4.42283        4.41124
C          1.07468        5.65186        4.25256
C          0.04649        5.42536        3.33945
C          0.08677        4.03298        3.10048
N          0.95023        3.60041        3.60577
C         -0.55740        2.05069        2.24884
N          0.04707        0.06421        2.01831
C          0.12018       -0.88355        3.16047
H          1.39588        6.55202        4.76017
H          2.42639        4.10665        5.07033
H         -0.62126        6.17639        2.95007
H         -1.43801        1.92307        2.92112
H         -1.18714        2.29986        1.38344
C         -1.24127       -0.97834        3.84811
C          0.45980       -2.31691        2.65704
C          1.19066       -0.44738        4.17333
H         -2.01037       -1.29361        3.10946
H         -1.20837       -1.74930        4.65301
H         -1.52225       -0.01015        4.29882
H          1.45149       -2.38021        2.15975
H          0.47831       -3.03946        3.50706
H         -0.31195       -2.69073        1.95332
H          2.20831       -0.48768        3.73322
H          0.99008        0.58390        4.52450
H          1.18032       -1.12065        5.06073
