95
speciation1170.ct
Na         3.64053        1.01975        1.94952
Mg         2.07719        4.80367       -1.39778
C          5.91930       -0.62851        3.07099
C          6.12390        1.62121        3.71998
O          5.61833        0.72933        2.74633
C          5.11858       -1.13624        4.28923
C          5.91429        3.05792        3.27885
H          5.59686       -1.23264        2.19208
H          6.98269       -0.79282        3.18243
H          5.59781        1.48182        4.68640
H          7.22376        1.46722        3.82075
H          4.82987        3.29675        3.20596
H          6.35887        3.73208        4.03783
H          6.40538        3.25757        2.29590
H          4.04861       -0.90100        4.16156
H          5.26396       -2.23149        4.36974
H          5.50638       -0.67341        5.21354
H          3.65803        7.22237       -1.19251
C          5.08909        6.37145       -2.55317
C          4.03830        6.21913       -1.39278
C          4.39801        6.53792       -3.93067
H          5.80495        7.19011       -2.35459
H          5.80345        5.53328       -2.61255
H          5.13087        6.39036       -4.75167
H          3.57393        5.82125       -4.14833
C          3.81331        7.91219       -4.00277
H          4.58229        5.87038       -0.48477
H          3.09540        8.03063       -3.17772
H          4.63462        8.63769       -3.86560
H          3.31097        8.05466       -4.97793
C          0.48779        1.25876        1.87143
C         -0.66741        1.45807        1.12922
C         -0.28262        1.61496       -0.16821
C          1.08962        1.48764       -0.16909
N          1.57949        1.27926        1.08196
C          1.85893        1.52381       -1.43078
N          2.81322        2.62971       -1.48572
C          3.62459        2.46570       -2.72892
H         -1.68559        1.50310        1.48803
H          0.51998        1.10988        2.93695
H         -0.92378        1.79247       -1.02587
H          2.36867        0.54376       -1.52429
H          1.13000        1.62277       -2.26204
C          2.73244        2.51520       -4.00739
C          4.41532        3.65560       -2.76258
C          4.71259        1.34156       -2.70568
H          2.00912        3.31493       -3.83278
H          3.28637        2.81654       -4.92463
H          2.13956        1.60945       -4.21579
H          5.03464        3.72694       -1.83579
H          5.03911        3.73899       -3.68308
H          3.62940        4.40039       -2.74585
H          5.49518        1.54924       -1.93156
H          4.34479        0.32453       -2.51233
H          5.27223        1.34482       -3.67288
Na         4.22774        2.24504        0.07686
Mg         2.64169        7.33048        4.32307
H          0.76340        4.87208       -4.19626
C         -0.52770        6.42458       -3.71927
C          0.32683        5.19339       -3.23627
C          0.35280        7.60621       -4.14166
H         -1.18550        6.14091       -4.57192
H         -1.24193        6.77182       -2.95418
H          1.02696        7.85680       -3.31815
H          0.95042        7.32984       -5.03546
C         -0.44236        8.88233       -4.40616
H         -0.42833        4.42484       -2.94793
H         -1.14071        8.75132       -5.25578
H         -1.01229        9.17118       -3.49514
H          0.26421        9.71001       -4.63746
C          0.38715        5.59455        4.95577
C         -0.39568        4.56282        4.49104
C          0.10883        4.22298        3.26138
C          1.18883        5.04927        3.01534
N          1.35959        5.88806        4.06436
C          2.00332        5.06885        1.73061
N          1.17061        5.34667        0.52522
C          0.47515        6.68774        0.57131
H         -1.26128        4.12844        4.97522
H          0.23879        6.11817        5.89182
H         -0.29806        3.48948        2.60855
H          2.48759        4.07850        1.61090
H          2.82925        5.80435        1.81306
C          1.42650        7.89095        0.82448
C         -0.12742        6.91909       -0.77203
C         -0.74736        6.71577        1.52832
H          2.12863        8.02067       -0.01599
H          0.84723        8.83838        0.87196
H          2.00861        7.82000        1.75980
H         -0.87110        6.11729       -0.97350
H         -0.63015        7.91220       -0.84756
H          0.70858        6.89359       -1.47921
H         -1.41468        5.85063        1.31006
H         -0.50838        6.73346        2.59419
H         -1.34208        7.64349        1.38292
