96
speciation1724.ct
Na         4.66399        0.85277        1.34637
Mg         4.97680       -0.36441       -1.79828
C          4.37856       -1.48079       -4.41163
C          4.62963        0.83306       -4.67368
O          4.52190       -0.23906       -3.73540
C          5.61499       -1.88775       -5.22792
C          4.83727        2.19025       -4.02821
H          4.22133       -2.25605       -3.64896
H          3.45976       -1.50132       -5.04202
H          5.50899        0.70855       -5.34021
H          3.69473        0.89849       -5.27511
H          5.82795        2.22284       -3.53990
H          4.83845        2.97053       -4.81900
H          4.02976        2.43667       -3.31895
H          6.53399       -1.76809       -4.62508
H          5.52021       -2.94504       -5.55124
H          5.72185       -1.27657       -6.14592
H          0.07121       -5.63302        4.35358
C         -0.81955       -6.33719        2.55169
C         -0.23695       -5.19147        3.39484
C          0.18373       -7.41599        2.10907
H         -1.61756       -6.82924        3.15613
H         -1.30088       -5.91418        1.64560
H         -0.38280       -8.19920        1.55740
H          0.92941       -6.99006        1.41752
C          0.93620       -8.08120        3.25676
H         -1.08055       -4.50225        3.60259
H          1.57543       -7.34068        3.78026
H          0.22964       -8.54503        3.97551
H          1.59831       -8.87184        2.84267
C          1.69750       -4.43102        0.16350
C          2.31898       -4.24920       -1.06293
C          3.21836       -3.24450       -0.88737
C          3.08711       -2.82707        0.42035
N          2.16873       -3.58316        1.10267
C          3.84758       -1.62719        0.88363
N          3.71852       -0.46103       -0.04567
C          2.35768        0.15007       -0.20833
H          2.13382       -4.77469       -1.99210
H          0.91949       -5.14786        0.33054
H          3.87397       -2.81212       -1.62426
H          4.92526       -1.89100        0.92402
H          3.54078       -1.36555        1.91657
C          1.75364        0.55119        1.14932
C          2.50974        1.41538       -1.05400
C          1.34212       -0.75614       -0.95014
H          2.43336        1.21555        1.71980
H          0.78168        1.07404        1.01741
H          1.54854       -0.34903        1.73952
H          2.85831        1.12545       -2.06151
H          1.53118        1.93483       -1.17132
H          3.23043        2.12192       -0.59433
H          1.73976       -1.08158       -1.93446
H          1.04209       -1.63689       -0.35542
H          0.39041       -0.20855       -1.12739
Mg         1.35234       -3.75962        3.08504
C          7.51848        0.86399       -1.42949
C          7.87220       -1.35360       -1.96009
O          6.91142       -0.41361       -1.48867
C          6.56458        1.86451       -0.80867
C          7.33445       -2.77877       -1.97869
H          8.40324        0.83563       -0.75087
H          7.82319        1.22126       -2.44046
H          8.26097       -1.09117       -2.97281
H          8.72510       -1.38405       -1.24139
H          6.55338       -2.90989       -2.74681
H          8.17375       -3.47275       -2.21724
H          6.91975       -3.04574       -0.98942
H          6.30192        1.52217        0.20037
H          7.05645        2.85579       -0.72568
H          5.63823        1.96253       -1.40058
C          1.43360        1.58066        6.25142
C          2.72280        1.15201        6.02053
C          2.64888       -0.04088        5.31803
C          1.35631       -0.33967        5.13562
N          0.52742        0.65987        5.69600
C          0.83218       -1.55270        4.45485
N          1.32235       -2.82201        5.00695
C          0.82252       -3.16732        6.40173
H          3.61839        1.65422        6.35695
H          1.15419        2.46794        6.80147
H          3.48831       -0.63419        4.99653
H          1.17867       -1.52684        3.41751
H         -0.27849       -1.54111        4.40283
C         -0.72370       -3.21824        6.48545
C          1.37975       -4.53610        6.85318
C          1.31907       -2.16463        7.48323
H         -1.14194       -3.96615        5.79055
H         -1.05183       -3.49730        7.51249
H         -1.18128       -2.22949        6.27700
H          2.48799       -4.52305        6.88397
H          1.01983       -4.77183        7.88193
H          1.04829       -5.36682        6.21315
H          2.42562       -2.06797        7.45705
H          0.85462       -1.16933        7.40267
H          1.03321       -2.50355        8.50479
