110
speciation2090.ct
Na        -1.07619        7.77249       -4.05928
Mg         0.95439        5.94607        1.57048
C         -4.05830        9.29448       -4.04814
C         -3.64507        8.67293       -6.28794
O         -3.21365        8.52288       -4.93569
C         -5.55237        8.87938       -4.03949
C         -3.99092       10.11762       -6.79128
H         -3.73859        9.16058       -3.01938
H         -3.95893       10.39148       -4.22284
H         -2.85280        8.29509       -6.95084
H         -4.54650        8.04596       -6.47572
H         -3.15157       10.83704       -6.71525
H         -4.29781       10.10091       -7.85289
H         -4.85435       10.58326       -6.24856
H         -5.65450        7.80640       -3.78386
H         -6.11136        9.47633       -3.28226
H         -6.05555        9.06360       -5.01168
H          1.92639        7.97105        0.22083
C          1.54862        9.09295        1.99779
C          1.18793        7.95870        1.04155
C          2.97149        9.00185        2.57915
H          1.47457       10.04528        1.43063
H          0.80676        9.12052        2.82459
H          3.15628        9.90737        3.19209
H          3.05663        8.15202        3.26035
C          4.07356        8.88599        1.51934
H          0.22593        8.17993        0.55989
H          3.97635        7.95325        0.92690
H          4.04742        9.76027        0.83623
H          5.06341        8.84143        2.01910
C         -2.31689        8.24398       -1.25427
C         -2.16984        9.26772       -0.33796
C         -1.14888       10.07397       -0.79759
C         -0.74405        9.53790       -1.99492
N         -1.46504        8.43834       -2.26511
C          0.29770       10.11601       -2.92140
N          0.45938        9.30266       -4.14703
C          0.63710       10.04905       -5.41416
H         -2.75406        9.42497        0.55285
H         -3.05911        7.45211       -1.22409
H         -0.77632       10.96953       -0.32508
H          1.27495       10.15417       -2.38733
H         -0.01364       11.15140       -3.13276
C          1.82264       11.03804       -5.35774
C          0.90985        9.03155       -6.53624
C         -0.65028       10.80919       -5.73528
H          2.77592       10.50408       -5.16430
H          1.91463       11.57807       -6.32701
H          1.68248       11.80438       -4.56792
H          0.09076        8.28540       -6.60500
H          0.99816        9.54838       -7.51866
H          1.86289        8.49187       -6.34940
H         -1.47501       10.09294       -5.64122
H         -0.84444       11.64607       -5.03485
H         -0.62931       11.23727       -6.75980
Na         2.23367        8.14684       -3.80874
Mg        -1.02645        5.75054       -1.35554
C         -0.41557        5.01013        4.19207
C         -1.88929        6.20915        2.87299
O         -0.54970        5.76303        2.98796
C         -1.02303        3.59752        4.11481
C         -2.03196        7.15115        1.73673
H          0.64521        4.94116        4.46769
H         -0.87116        5.55147        5.05728
H         -2.57578        5.36416        2.67016
H         -2.21386        6.77943        3.77944
H         -1.68170        6.65006        0.81101
H         -3.10324        7.42657        1.63470
H         -1.44502        8.06261        1.96272
H         -0.49672        2.97754        3.36683
H         -0.92080        3.09072        5.09509
H         -2.10516        3.62178        3.87583
H          3.63270        5.83563        2.18094
C          3.35267        4.23898        3.60876
C          2.81197        5.46883        2.83477
C          4.65632        4.56342        4.38578
H          2.59820        3.91131        4.35910
H          3.54642        3.40469        2.91480
H          5.43165        4.97091        3.70298
H          4.44369        5.35005        5.14771
C          5.27280        3.30792        5.03420
H          2.58677        6.19624        3.63125
H          4.53054        2.56030        5.39571
H          5.85140        2.77643        4.25919
H          5.98904        3.58568        5.84569
C          0.65583        5.07856       -5.06841
C          1.66969        4.14320       -4.88740
C          2.11264        4.30433       -3.61253
C          1.32511        5.28339       -3.01924
N          0.42601        5.80542       -3.93014
C          1.60364        5.68612       -1.55362
N          0.62837        5.17549       -0.53902
C          0.55130        3.70203       -0.36270
H          2.07423        3.43483       -5.60292
H          0.15348        5.21461       -6.00657
H          2.92070        3.74173       -3.14803
H          2.63746        5.37026       -1.27707
H          1.63779        6.78605       -1.56688
C          1.88428        3.14211        0.17513
C         -0.56026        3.50007        0.64391
C          0.11176        2.90099       -1.61407
H          2.17861        3.69978        1.07384
H          1.79109        2.06706        0.43012
H          2.69480        3.24090       -0.57820
H         -1.52266        3.89132        0.23681
H         -0.68560        2.43424        0.91870
H         -0.30176        4.07153        1.52187
H         -0.77785        3.33794       -2.08889
H         -0.14895        1.84131       -1.31151
H          0.91049        2.72656       -2.33738
