81
speciation742.ct
Na         5.16052        1.42457        0.33261
Mg         0.56799       -1.02915        1.55059
C         -0.13291        1.70140        0.85303
C          1.94906        1.62577        1.91495
O          0.67128        1.01246        1.80590
C          0.52517        1.88901       -0.53051
C          1.95947        3.04705        2.53955
H         -1.06338        1.11827        0.73936
H         -0.47477        2.68411        1.24454
H          2.52604        0.97433        2.55246
H          2.49522        1.64162        0.95261
H          1.88390        3.00420        3.64503
H          2.91004        3.56537        2.27553
H          1.15822        3.71121        2.16400
H          0.95073        0.93231       -0.87897
H         -0.21437        2.26820       -1.25856
H          1.34872        2.63662       -0.51063
H         -2.42867       -7.97734       -0.55612
C         -0.83505       -8.51815       -1.96674
C         -2.03365       -7.67532       -1.54794
C          0.29092       -8.38610       -0.93404
H         -1.14591       -9.58018       -2.06284
H         -0.47907       -8.15287       -2.95470
H          0.58758       -7.31848       -0.82654
H         -0.07441       -8.75461        0.04841
C          1.52168       -9.19567       -1.33484
H         -2.83668       -7.72735       -2.31235
H          1.25355      -10.26393       -1.47719
H          1.96054       -8.79910       -2.27534
H          2.28643       -9.12652       -0.53205
C          1.91568       -3.80377        1.87367
C          3.06611       -4.55644        1.68931
C          3.97294       -3.73335        1.08329
C          3.34680       -2.50864        0.93125
N          2.07550       -2.53043        1.42256
C          4.04853       -1.32870        0.34550
N          4.18020       -0.21540        1.30837
C          4.95454       -0.42566        2.56180
H          3.24487       -5.58802        1.97438
H          1.01829       -4.18817        2.33414
H          4.99528       -3.98123        0.81524
H          3.47117       -0.99885       -0.54372
H          5.05084       -1.62884       -0.03135
C          6.38479       -0.88208        2.23201
C          5.07930        0.92168        3.31853
C          4.24250       -1.40046        3.53024
H          6.86105       -0.14180        1.55064
H          6.99147       -0.94954        3.15814
H          6.40027       -1.87480        1.74149
H          4.13186        1.31862        3.71808
H          5.69924        0.78498        4.22727
H          5.54116        1.70292        2.68232
H          3.18471       -1.08514        3.67914
H          4.25324       -2.44538        3.20270
H          4.75093       -1.43150        4.51151
Mg        -1.26809       -5.84947       -1.50912
C          0.39906       -3.78493       -2.36961
C          0.86612       -2.51449       -2.15476
C          0.25015       -2.05828       -1.00469
C         -0.57616       -3.07016       -0.54583
N         -0.48181       -4.11559       -1.40464
C         -1.45946       -3.06291        0.71083
N         -1.38405       -1.80549        1.51777
C         -2.15398       -1.82039        2.82596
H          1.58046       -1.98790       -2.77860
H          0.67803       -4.43970       -3.18983
H          0.39450       -1.10189       -0.55248
H         -1.13840       -3.92483        1.32740
H         -2.50801       -3.24166        0.39331
C         -1.66799       -2.93622        3.77201
C         -1.92934       -0.48208        3.56370
C         -3.69365       -2.00551        2.64836
H         -0.56883       -2.88440        3.88299
H         -2.12682       -2.81948        4.78393
H         -1.97993       -3.93760        3.41161
H         -2.36256        0.37439        3.00600
H         -2.41390       -0.49216        4.57054
H         -0.84608       -0.30652        3.72112
H         -4.15919       -1.17243        2.08120
H         -3.94655       -2.96427        2.15161
H         -4.20180       -2.03779        3.64438
