110
speciation1902.ct
Na         1.11732       -0.16400        0.36471
Mg        -2.09564       -1.84478       -0.97465
C          0.99796        1.17122        3.15301
C         -1.12225        0.30738        2.51293
O          0.13557        0.81234        2.06860
C          1.19823        0.06574        4.20294
C         -1.99548        1.39709        3.15466
H          1.98354        1.41539        2.71723
H          0.68695        2.12365        3.64113
H         -1.66665       -0.14259        1.65581
H         -1.00811       -0.52432        3.23267
H         -2.36632        2.12612        2.40410
H         -2.85372        0.92164        3.67200
H         -1.44163        1.95144        3.93505
H          1.31436       -0.90622        3.68404
H          2.09753        0.27084        4.81810
H          0.32872        0.00415        4.89816
H         -2.13503       -0.58517       -3.40567
C         -4.03561       -1.46853       -3.73819
C         -2.65187       -1.51342       -3.09579
C         -4.87550       -0.30778       -3.21768
H         -3.92103       -1.35089       -4.84399
H         -4.55889       -2.42882       -3.54820
H         -5.00193       -0.41224       -2.12261
H         -4.38083        0.66792       -3.42862
C         -6.24212       -0.34404       -3.88988
H         -2.12973       -2.36580       -3.57943
H         -6.13634       -0.19654       -4.98772
H         -6.70896       -1.33454       -3.70446
H         -6.89672        0.44872       -3.47465
C          0.63177        0.96103       -4.55628
C          0.08274        1.65605       -3.49043
C         -0.00188        0.76553       -2.43953
C          0.50002       -0.43149       -2.90904
N          0.90561       -0.31648       -4.19966
C          0.63421       -1.72374       -2.16944
N          0.01336       -1.81957       -0.80200
C          0.24120       -3.19139       -0.20615
H         -0.21251        2.70079       -3.47733
H          0.83040        1.38339       -5.53093
H         -0.37062        0.97431       -1.44421
H          1.73033       -1.87026       -2.13008
H          0.18591       -2.45325       -2.85765
C          1.73204       -3.58958       -0.17245
C         -0.24991       -3.24550        1.24898
C         -0.54602       -4.28413       -0.97105
H          2.29455       -2.86698        0.44819
H          1.85755       -4.59414        0.28740
H          2.17148       -3.67658       -1.18240
H         -1.31738       -2.99042        1.31627
H         -0.13811       -4.28150        1.65180
H          0.33119       -2.55623        1.89160
H         -1.63845       -4.21566       -0.79684
H         -0.37840       -4.23092       -2.04656
H         -0.21876       -5.30224       -0.66048
Na         4.44468       -4.28036       -5.54749
Mg         1.79434       -1.84063       -5.31486
C          4.23953       -0.57397       -0.14802
C          3.64293        1.68841       -0.17209
O          3.17061        0.35498       -0.27588
C          4.85667       -0.54328        1.25257
C          2.48748        2.65004       -0.35908
H          3.82826       -1.57495       -0.35542
H          5.02583       -0.45149       -0.93563
H          4.10259        1.90702        0.81738
H          4.38514        1.88883       -0.97987
H          1.84606        2.67282        0.54671
H          2.87322        3.67319       -0.55500
H          1.88260        2.31857       -1.22047
H          4.04432       -0.45271        2.00287
H          5.45180       -1.45769        1.44229
H          5.54157        0.32668        1.35772
H         -3.42722       -2.57653        1.49364
C         -5.09584       -2.66113        0.18723
C         -3.77744       -1.99789        0.61014
C         -4.86791       -4.08803       -0.30873
H         -5.80473       -2.68709        1.04973
H         -5.56657       -2.06666       -0.61968
H         -4.16096       -4.05838       -1.16373
H         -4.43523       -4.72073        0.49899
C         -6.18078       -4.70884       -0.77663
H         -4.02790       -0.99387        1.01904
H         -6.89988       -4.80446        0.06575
H         -6.63617       -4.07150       -1.56472
H         -5.98166       -5.71843       -1.19202
C         -0.14521       -5.88054       -3.96625
C          1.12883       -6.02098       -3.46068
C          2.00287       -5.50690       -4.39342
C          1.29251       -5.06575       -5.42886
N         -0.09133       -5.25737       -5.22183
C          1.86643       -4.50654       -6.68900
N          2.73382       -3.33320       -6.42330
C          3.33406       -2.73504       -7.64617
H          1.39273       -6.46497       -2.51200
H         -1.05406       -6.19373       -3.47095
H          3.07703       -5.49333       -4.30805
H          1.02059       -4.27529       -7.36421
H          2.45395       -5.33649       -7.13161
C          2.25149       -2.24775       -8.62037
C          4.18827       -1.51825       -7.21901
C          4.25724       -3.73683       -8.39910
H          1.58452       -1.51814       -8.11613
H          2.72250       -1.77072       -9.50346
H          1.65498       -3.09385       -9.01028
H          5.00861       -1.81067       -6.52503
H          4.65384       -1.03000       -8.10168
H          3.55993       -0.76155       -6.69913
H          5.14865       -4.02142       -7.80035
H          3.72006       -4.65831       -8.69204
H          4.62272       -3.28695       -9.34492
