53
speciation824.ct
Na         0.93773       -0.05587        0.05479
C         -2.21520        0.46384       -0.90921
C         -3.54518        0.29771       -0.58600
C         -3.57721       -0.35061        0.62898
C         -2.25990       -0.55684        0.99318
N         -1.43227       -0.05587        0.05479
C         -1.78671       -1.21321        2.25279
N         -2.26836       -2.60315        2.32167
C         -1.86057       -3.37169        3.52102
H         -4.39762        0.61930       -1.16912
H         -1.83698        0.94396       -1.80214
H         -4.46287       -0.62952        1.18104
H         -0.67855       -1.18600        2.25444
H         -2.17763       -0.61629        3.10007
C         -2.37340       -2.70730        4.81772
C         -2.49910       -4.76826        3.41078
C         -0.32811       -3.54611        3.58631
H         -3.47553       -2.57317        4.77467
H         -2.12952       -3.33682        5.70007
H         -1.89974       -1.71873        4.98710
H         -2.15259       -5.28429        2.48941
H         -2.22805       -5.39731        4.28667
H         -3.60641       -4.69239        3.37077
H          0.04626       -4.02612        2.65690
H          0.19196       -2.57670        3.72163
H         -0.04776       -4.18690        4.44980
Na        -4.40525       -2.66301        2.25102
Mg         6.08186        3.12467       -1.02133
C          4.09921       -1.14446        0.01522
C          5.42729       -0.76987        0.03066
C          5.44761        0.60704        0.08246
C          4.12717        1.01238        0.09503
N          3.30773       -0.05587        0.05479
C          3.64489        2.42640        0.16419
N          4.13071        3.18232       -0.99893
C          3.73218        4.60714       -1.06299
H          6.28520       -1.42860        0.01043
H          3.72955       -2.16032       -0.02069
H          6.32578        1.23747        0.11328
H          2.53673        2.41171        0.18521
H          4.03344        2.85868        1.10779
C          4.23905        5.39235        0.16616
C          4.38289        5.20837       -2.32044
C          2.20087        4.75573       -1.19087
H          5.34048        5.28397        0.26756
H          3.99982        6.47299        0.06349
H          3.75814        5.04464        1.10276
H          4.04039        4.67328       -3.23240
H          4.12024        6.28391       -2.42722
H          5.48996        5.12543       -2.26459
H          1.83043        4.19420       -2.07530
H          1.67478        4.38573       -0.28808
H          1.92365        5.82526       -1.31248
