95
speciation1668.ct
Na         1.03707        1.54461        0.05048
Mg         3.25704       -0.54098       -1.64013
C          1.82169       -0.41840       -3.87137
C          4.08623        0.03488       -4.41668
O          3.04113        0.16311       -3.44648
C          1.90875       -1.92551       -4.15504
C          3.81654        0.78555       -5.73265
H          1.10000       -0.26501       -3.04828
H          1.37805        0.13852       -4.71951
H          5.00762        0.49843       -4.00669
H          4.32835       -1.02456       -4.63068
H          3.74160        1.87783       -5.54969
H          4.65513        0.60240       -6.43891
H          2.89763        0.43371       -6.24170
H          2.31084       -2.46199       -3.26940
H          0.89705       -2.31354       -4.38853
H          2.54331       -2.14638       -5.03776
H          5.56131       -1.30532       -2.73426
C          6.20295       -1.90584       -0.81595
C          5.38725       -0.96130       -1.69919
C          5.77930       -3.37838       -0.96102
H          7.26907       -1.82234       -1.12665
H          6.12862       -1.57438        0.24122
H          4.72287       -3.53026       -0.67849
H          5.87905       -3.70998       -2.01606
C          6.64424       -4.26508       -0.07023
H          5.81759        0.05807       -1.59614
H          7.70249       -4.22455       -0.40438
H          6.58496       -3.92653        0.98553
H          6.28856       -5.31485       -0.12323
C         -2.03046        0.70199        0.60342
C         -2.71701       -0.49122        0.51012
C         -1.79268       -1.45025        0.14131
C         -0.58584       -0.80362        0.03114
N         -0.72779        0.50483        0.30982
C          0.72483       -1.41108       -0.33844
N          1.85290       -0.47792       -0.10226
C          2.49874       -0.62029        1.22877
H         -3.77187       -0.65284        0.68826
H         -2.45834        1.66376        0.85841
H         -1.97989       -2.50249       -0.02995
H          0.68350       -1.70843       -1.40579
H          0.82255       -2.34170        0.23445
C          3.19103       -1.99177        1.32822
C          3.52223        0.50882        1.30086
C          1.51072       -0.42681        2.40323
H          3.87631       -2.05142        0.48688
H          3.75351       -2.18244        2.23609
H          2.50021       -2.84872        1.30264
H          2.97989        1.43660        1.12902
H          3.98132        0.70781        2.25634
H          4.33939        0.36373        0.56678
H          0.98328        0.54326        2.31749
H          0.76155       -1.23942        2.45831
H          2.04794       -0.41633        3.37545
Na         0.12823        4.88461       -0.17168
Mg         2.74807        1.62527        4.13731
H          5.21668        1.16738        4.43082
C          4.74858       -0.90546        4.15526
C          4.36452        0.48281        4.63073
C          5.99475       -1.49067        4.80592
H          3.88726       -1.58117        4.34181
H          5.02401       -0.83107        3.09374
H          6.86419       -0.82558        4.60764
H          5.85090       -1.59109        5.90156
C          6.26826       -2.86571        4.19046
H          4.21068        0.44074        5.72985
H          5.41435       -3.55027        4.38700
H          6.39727       -2.77452        3.08942
H          7.19089       -3.30443        4.61808
C          0.01372        2.73912        4.33656
C         -0.86790        3.62952        3.76796
C         -0.21649        4.20046        2.69145
C          1.04627        3.62985        2.64871
N          1.17124        2.73974        3.65598
C          2.14913        3.94144        1.65679
N          1.73752        3.56306        0.28907
C          2.70923        3.75769       -0.82353
H         -1.87239        3.84010        4.11069
H         -0.17344        2.12137        5.20548
H         -0.62188        4.95470        2.03414
H          3.06293        3.40513        1.96404
H          2.36361        5.02996        1.71653
C          3.97474        2.87893       -0.73002
C          1.98090        3.33222       -2.11166
C          3.15028        5.22447       -0.93154
H          3.70929        1.81803       -0.88430
H          4.67249        3.10013       -1.56651
H          4.53293        3.03283        0.21655
H          1.05212        3.92023       -2.25651
H          2.63053        3.44219       -3.00543
H          1.68603        2.25909       -2.04752
H          2.27118        5.88551       -1.06918
H          3.71342        5.53579       -0.02770
H          3.82996        5.35155       -1.80345
