80
speciation906.ct
Na         1.30758        1.88791       -0.04525
Mg         9.10173       -0.66327       -1.63053
H         10.96092       -2.20802       -0.06656
C         11.89563       -2.46713       -1.97939
C         10.62072       -2.33705       -1.11894
C         11.52231       -2.72661       -3.43852
H         12.48341       -1.52886       -1.89290
H         12.54196       -3.30440       -1.61384
H         11.01555       -3.71351       -3.52122
H         10.82425       -1.93112       -3.76167
C         12.73133       -2.70580       -4.37359
H         10.09448       -3.31753       -1.15285
H         13.24786       -1.72385       -4.31487
H         13.45142       -3.51468       -4.12682
H         12.37912       -2.85110       -5.41762
C         -1.77206        1.12700       -0.08351
C         -2.39664       -0.10801       -0.09893
C         -1.40500       -1.06223       -0.09072
C         -0.20887       -0.37657       -0.06758
N         -0.43890        0.94750       -0.06549
C          1.17743       -0.99817       -0.04019
N          2.24500        0.03300       -0.00400
C          3.12203        0.06084        1.19287
H         -3.46731       -0.27484       -0.11390
H         -2.25111        2.09419       -0.08400
H         -1.54131       -2.13604       -0.09651
H          1.30540       -1.61028       -0.95645
H          1.22365       -1.68287        0.82927
C          3.92645       -1.24889        1.36149
C          4.12718        1.20995        0.99724
C          2.30500        0.34236        2.47110
H          4.59108       -1.42309        0.49482
H          4.57899       -1.18452        2.25950
H          3.27314       -2.13354        1.49505
H          3.60119        2.18239        0.89293
H          4.82929        1.27999        1.85643
H          4.72504        1.04562        0.07742
H          1.74649        1.29723        2.37254
H          1.57994       -0.46773        2.68549
H          2.98189        0.42589        3.34974
Na         3.75859        1.38284       -4.82839
Mg         3.38218        0.08335       -1.63630
H          7.37003        0.62072        0.01837
C          8.94156        0.33487        1.44234
C          8.11090       -0.17042        0.25598
C          9.66968        1.63887        1.09524
H          8.26491        0.52389        2.30902
H          9.67328       -0.44693        1.73281
H         10.31824        1.46929        0.21084
H          8.92711        2.43151        0.85067
C         10.53978        2.12457        2.25509
H          7.54259       -1.07018        0.57522
H          9.92063        2.34225        3.15191
H         11.29848        1.35598        2.51454
H         11.06947        3.05513        1.95835
C          8.90016        0.42696       -4.45303
C          8.12589        1.04615       -5.41882
C          6.89237        1.23489       -4.87389
C          6.94113        0.70597       -3.60224
N          8.19353        0.21575       -3.32095
C          5.76208        0.69722       -2.67182
N          4.51935        0.13370       -3.26860
C          4.48108       -1.31718       -3.56604
H          8.43068        1.33207       -6.42193
H          9.93733        0.15391       -4.58311
H          6.03255        1.69085       -5.36078
H          5.53633        1.75468       -2.42082
H          6.01939        0.18732       -1.73394
C          4.63844       -2.13790       -2.26907
C          3.09444       -1.56994       -4.17082
C          5.55730       -1.79571       -4.56655
H          3.84722       -1.87650       -1.54388
H          4.55836       -3.22552       -2.47055
H          5.63250       -1.96739       -1.80331
H          2.98853       -0.98683       -5.11241
H          2.92889       -2.64292       -4.39681
H          2.30429       -1.22053       -3.47011
H          5.49516       -1.25183       -5.53068
H          6.57786       -1.70451       -4.14839
H          5.42897       -2.88221       -4.76623
