81
speciation392.ct
Na         3.25954       -0.52969        2.18408
Mg         3.55380        4.19663       -2.89491
C          2.77174       -1.10160        5.12602
C          1.13124       -2.07507        3.75978
O          2.07356       -1.01412        3.88437
C          3.69530       -2.32346        5.22321
C          0.28780       -1.89496        2.50533
H          3.38280       -0.18925        5.20471
H          2.06248       -1.07839        5.97995
H          1.61755       -3.07612        3.68346
H          0.41969       -2.07101        4.62064
H          0.93282       -1.95283        1.60524
H         -0.47602       -2.70244        2.44984
H         -0.23219       -0.91532        2.53339
H          4.36928       -2.36338        4.34275
H          4.30380       -2.24702        6.14788
H          3.11766       -3.26957        5.29034
H          4.81762        6.74763       -4.04608
C          4.76512        7.30278       -2.00759
C          4.11548        6.57213       -3.19826
C          6.09150        6.63022       -1.65678
H          4.95373        8.38137       -2.23116
H          4.07113        7.28604       -1.14648
H          5.93957        5.53382       -1.57634
H          6.82633        6.83229       -2.46812
C          6.63988        7.12663       -0.32449
H          3.20723        7.15679       -3.47069
H          6.79684        8.22532       -0.33961
H          5.92821        6.86737        0.48943
H          7.60772        6.62312       -0.11828
C          5.50299       -0.71332       -0.03102
C          6.12041       -0.07108       -1.09495
C          5.52330        1.15407       -1.23653
C          4.53685        1.21020       -0.25807
N          4.52947        0.07362        0.48523
C          3.66326        2.39128       -0.01844
N          2.76080        2.70410       -1.16093
C          1.84215        3.83463       -0.80553
H          6.93693       -0.46134       -1.69244
H          5.75045       -1.68002        0.35092
H          5.77135        1.91293       -1.96473
H          3.07673        2.12890        0.87435
H          4.32363        3.25596        0.20930
C          2.65180        5.11983       -0.53841
C          0.89441        4.04159       -1.99436
C          0.96137        3.59113        0.45288
H          3.51508        5.15241       -1.20774
H          2.03164        6.03528       -0.64932
H          3.07461        5.13918        0.48989
H          0.22592        3.15918       -2.09641
H          0.25280        4.93636       -1.83339
H          1.45272        4.17220       -2.94065
H          0.34763        2.67444        0.35217
H          1.55834        3.52143        1.38706
H          0.28362        4.45957        0.61452
Mg         3.86075        2.37530       -2.78638
C          5.22943        0.78796       -4.80662
C          6.05556        0.79679       -5.90971
C          6.30412        2.12256       -6.19822
C          5.60949        2.85288       -5.24832
N          4.96071        2.04650       -4.41183
C          5.49218        4.31259       -5.12479
N          4.05827        4.64439       -5.01349
C          3.30106        4.59647       -6.32832
H          6.43100       -0.06977       -6.43807
H          4.84824       -0.09317       -4.30681
H          6.91006        2.50194       -7.00966
H          5.99193        4.61960       -4.18491
H          6.02221        4.83440       -5.94494
C          3.14856        3.16251       -6.89652
C          1.88862        5.14796       -6.10804
C          3.96250        5.46809       -7.44234
H          2.70416        2.47959       -6.14504
H          2.50337        3.16154       -7.80236
H          4.10485        2.75093       -7.26081
H          1.92861        6.19726       -5.75159
H          1.31784        5.13378       -7.06690
H          1.33961        4.52370       -5.37627
H          4.06538        6.52622       -7.12403
H          4.95581        5.08948       -7.76175
H          3.34682        5.45080       -8.37124
