96
speciation1024.ct
Na        -2.27940        6.22718       -0.97604
Mg        -1.27497       -0.47115        1.32344
C         -2.45258        9.52941       -1.92026
C         -0.53043        8.35311       -2.48061
O         -1.66089        8.36782       -1.59556
C         -3.17892       10.16443       -0.74142
C         -0.89075        7.99086       -3.93456
H         -1.81595       10.39313       -2.27618
H         -3.17632        9.32068       -2.73184
H         -0.00708        9.33974       -2.46706
H          0.26535        7.68051       -2.10259
H         -1.93080        8.26354       -4.20250
H         -0.22610        8.54500       -4.63535
H         -0.75898        6.90423       -4.10826
H         -2.46470       10.50906        0.04041
H         -3.72274       11.06943       -1.10806
H         -3.91471        9.46017       -0.32044
H         -0.08411       -1.79733        3.91821
C         -1.60572       -3.29614        3.31497
C         -1.07360       -1.82732        3.41482
C         -2.02223       -4.07123        4.64123
H         -2.55644       -3.16605        2.76482
H         -0.94195       -3.92751        2.69018
H         -2.40255       -3.35162        5.39320
H         -2.88695       -4.71343        4.35516
C         -1.04176       -5.07031        5.25505
H         -1.75767       -1.28802        4.11313
H         -0.86927       -5.93269        4.57016
H         -0.07261       -4.62801        5.55017
H         -1.51179       -5.50872        6.17098
C          0.20526        5.21106        1.08810
C          0.83945        4.14273        1.69555
C          0.12242        3.02933        1.38112
C         -0.94068        3.45556        0.62589
N         -0.89827        4.79808        0.38603
C         -1.97172        2.50013        0.10127
N         -2.25939        1.34136        1.00152
C         -3.06160        1.45765        2.21524
H          1.73963        4.18247        2.29559
H          0.52354        6.24229        1.12518
H          0.35396        2.02586        1.68668
H         -2.88955        3.03939       -0.19281
H         -1.56054        2.08330       -0.84306
C         -4.23241        2.44342        2.09176
C         -3.68336        0.06315        2.46208
C         -2.11986        1.82547        3.36303
H         -4.92230        2.11373        1.28272
H         -4.80074        2.45989        3.04623
H         -3.87884        3.46785        1.87037
H         -2.94780       -0.73536        2.34740
H         -4.13921       -0.01184        3.46877
H         -4.44978       -0.18456        1.70161
H         -1.25496        1.12029        3.38783
H         -1.73275        2.85589        3.22392
H         -2.64155        1.78307        4.33787
Mg        -3.34500        0.50526       -0.11582
C         -5.33774        5.13446       -1.36852
C         -3.96878        5.30302       -3.28448
O         -4.00140        5.12130       -1.87002
C         -6.06217        3.78510       -1.56591
C         -3.70136        3.98324       -4.01330
H         -5.29865        5.32549       -0.27893
H         -5.94973        5.95936       -1.80470
H         -4.88696        5.78837       -3.69874
H         -3.14024        6.00943       -3.51180
H         -4.51305        3.24710       -3.87193
H         -3.62318        4.17317       -5.10481
H         -2.76404        3.52832       -3.64655
H         -7.07457        3.80810       -1.11318
H         -5.47992        2.96013       -1.10440
H         -6.21838        3.55543       -2.63903
C         -4.96028       -1.61500       -1.14347
C         -4.72124       -2.70945       -1.94320
C         -3.38631       -2.65536       -2.30390
C         -2.85943       -1.52899       -1.69958
N         -3.82355       -0.92462       -1.00806
C         -1.44259       -0.99881       -1.83059
N         -0.66706       -0.91358       -0.55636
C          0.74176       -1.36940       -0.58279
H         -5.44941       -3.45341       -2.22724
H         -5.88918       -1.33837       -0.66701
H         -2.86159       -3.35078       -2.94148
H         -0.95371       -1.66139       -2.56312
H         -1.49124        0.01480       -2.28756
C          1.44057       -1.24655       -1.97112
C          1.56022       -0.49964        0.39233
C          0.72810       -2.82569       -0.10941
H          1.27842       -0.23737       -2.41042
H          2.53981       -1.38637       -1.86589
H          1.11552       -2.02567       -2.68940
H          1.11954       -0.51577        1.41098
H          2.60670       -0.87243        0.46425
H          1.59568        0.55582        0.04290
H          0.52185       -2.86903        0.98206
H         -0.09911       -3.36911       -0.62013
H          1.68197       -3.34434       -0.32734
