68
speciation81.ct
Na         1.28594        1.73040        0.30079
Mg         3.37471       -0.36414       -1.27222
C          2.14864        4.39694        1.62372
C          1.78092        4.41944       -0.72438
O          2.01561        3.64656        0.42686
C          0.87849        5.12811        2.04719
C          1.71062        3.47406       -1.91795
H          2.39493        3.68920        2.44009
H          3.01640        5.09121        1.56306
H          0.81189        4.95741       -0.66236
H          2.62569        5.12306       -0.89668
H          0.86535        2.76363       -1.79179
H          1.55418        4.04661       -2.85466
H          2.65283        2.89183       -2.00052
H          0.02092        4.42460        2.07224
H          1.02541        5.54897        3.06664
H          0.65829        5.97289        1.36347
C         -1.74363        0.93415        0.11364
C         -2.46110       -0.24029       -0.01474
C         -1.54185       -1.26998       -0.04476
C         -0.30911       -0.67274        0.07121
N         -0.43289        0.65155        0.16950
C          1.02005       -1.33528        0.10040
N          2.05095       -0.29566        0.26091
C          2.85609       -0.35885        1.48735
H         -3.53346       -0.32903       -0.08394
H         -2.14296        1.93564        0.16496
H         -1.75100       -2.32871       -0.13743
H          1.18900       -1.87315       -0.85550
H          1.02292       -2.08438        0.91817
C          3.65376       -1.68948        1.50878
C          3.70799        0.91601        1.43099
C          2.04869       -0.26611        2.79350
H          4.09785       -1.90132        0.52294
H          4.43452       -1.68778        2.29836
H          2.99845       -2.55899        1.71501
H          3.07852        1.79502        1.60741
H          4.50098        0.94681        2.20547
H          4.09168        1.08865        0.40582
H          1.42656        0.65020        2.81522
H          1.39870       -1.14757        2.94680
H          2.76280       -0.22527        3.65222
Na         5.03991        2.43527       -1.49440
C          2.21033       -1.52469       -3.87238
C          2.66403       -1.55620       -5.17372
C          3.87983       -0.89696       -5.18289
C          4.10738       -0.51171       -3.87389
N          3.09577       -0.88209       -3.08678
C          5.30139        0.20616       -3.34829
N          5.23091        0.32841       -1.86502
C          6.43946       -0.21432       -1.16915
H          2.17548       -2.00994       -6.02591
H          1.27758       -1.95506       -3.51669
H          4.53002       -0.74655       -6.03279
H          5.35768        1.21737       -3.80667
H          6.17905       -0.36586       -3.69072
C          7.75048        0.45344       -1.64103
C          6.40629        0.09783        0.32943
C          6.47374       -1.74433       -1.34281
H          7.69149        1.55394       -1.47763
H          8.60427        0.06619       -1.04190
H          7.98784        0.26385       -2.69968
H          5.61182       -0.45471        0.78397
H          7.30540       -0.26344        0.86095
H          6.30721        1.19093        0.51183
H          5.46891       -2.16995       -1.13013
H          6.71442       -2.04196       -2.38352
H          7.20501       -2.22150       -0.66480
