110
speciation1987.ct
Na        -1.16309       -3.36246        5.31515
Mg        -3.33740       -2.56409        0.75086
C          0.85866       -4.23775        7.56390
C         -1.29019       -4.78128        8.31518
O         -0.51661       -4.32674        7.20780
C          1.51413       -5.61409        7.78742
C         -2.76879       -4.79984        7.99071
H          1.39160       -3.74872        6.72578
H          1.01671       -3.58452        8.45604
H         -1.03662       -5.83552        8.55816
H         -1.13896       -4.13469        9.21078
H         -2.95579       -5.47010        7.12721
H         -3.32302       -5.19375        8.87092
H         -3.12273       -3.77529        7.76894
H          1.33163       -6.27351        6.91459
H          2.60910       -5.49706        7.92986
H          1.12880       -6.11165        8.70293
H         -4.96611       -4.28031       -0.27266
C         -4.92009       -4.83810        1.81558
C         -4.21304       -4.39401        0.53581
C         -5.92686       -3.79056        2.29476
H         -5.42752       -5.81244        1.64739
H         -4.17945       -4.98223        2.60810
H         -5.42110       -2.80648        2.41027
H         -6.74275       -3.69153        1.54695
C         -6.51486       -4.18588        3.64913
H         -3.46186       -5.14741        0.21867
H         -7.01336       -5.17645        3.58585
H         -5.70975       -4.23499        4.41524
H         -7.25893       -3.42820        3.97172
C         -3.49022       -1.18849        5.42969
C         -4.19242       -0.11622        4.91276
C         -3.64297        0.15299        3.68574
C         -2.63455       -0.77344        3.48937
N         -2.52429       -1.60569        4.58011
C         -1.74223       -0.76186        2.26479
N         -2.48323       -0.77901        0.96064
C         -1.62990       -0.74896       -0.23761
H         -5.00264        0.42777        5.38034
H         -3.67555       -1.62422        6.40232
H         -3.94289        0.94998        3.01976
H         -1.16378        0.17854        2.33470
H         -1.05636       -1.62385        2.36106
C         -0.64810       -1.94558       -0.25580
C         -2.56914       -0.88716       -1.44467
C         -0.87070        0.58924       -0.33012
H         -1.20660       -2.90188       -0.14756
H         -0.07688       -1.97590       -1.20654
H          0.09913       -1.88639        0.56137
H         -3.28700       -0.04313       -1.47751
H         -1.99522       -0.90473       -2.39574
H         -3.15173       -1.83205       -1.37318
H         -1.58470        1.43495       -0.22182
H         -0.10524        0.67315        0.46786
H         -0.34794        0.68128       -1.30387
Na        -4.12981        0.91345        0.75754
Mg        -6.83215        2.70969        2.23809
C         -1.45410       -5.00789        3.06858
C          0.78496       -5.16649        3.84525
O         -0.35338       -4.33863        3.65672
C         -1.91355       -6.28906        3.79058
C          1.41646       -5.60013        2.51169
H         -2.27465       -4.27205        3.11189
H         -1.28249       -5.19216        1.98789
H          1.55171       -4.57491        4.38369
H          0.56809       -6.04443        4.48582
H          1.72386       -4.70896        1.92421
H          2.31163       -6.22724        2.70602
H          0.71679       -6.20876        1.90210
H         -2.11367       -6.08004        4.86153
H         -2.84182       -6.67899        3.32447
H         -1.16511       -7.10278        3.70057
H         -8.95329        2.50823        3.71827
C         -7.93112        4.23304        4.52772
C         -7.91444        2.81608        3.96405
C         -8.52066        5.20465        3.49849
H         -8.54471        4.24947        5.45454
H         -6.89755        4.53853        4.78932
H         -7.91826        5.17293        2.56401
H         -9.56469        4.90419        3.25866
C         -8.53214        6.63545        4.02839
H         -7.49717        2.10173        4.70450
H         -9.14200        6.70085        4.95457
H         -7.49665        6.97278        4.24669
H         -8.97248        7.31140        3.26493
C         -2.13718        4.11926        2.65539
C         -3.18792        4.19671        3.54350
C         -4.35500        4.10474        2.80651
C         -4.03101        3.97638        1.52328
N         -2.63143        3.98337        1.34750
C         -5.00159        3.85480        0.39367
N         -5.77638        2.60591        0.55444
C         -6.72237        2.29239       -0.54983
H         -3.10489        4.30973        4.61596
H         -1.08771        4.16037        2.91586
H         -5.35799        4.13276        3.19491
H         -4.41111        3.81845       -0.54174
H         -5.66557        4.74436        0.38719
C         -5.98569        2.11313       -1.89734
C         -7.42514        0.96433       -0.20474
C         -7.80821        3.37992       -0.69767
H         -5.20256        1.33266       -1.80999
H         -6.69883        1.80289       -2.69224
H         -5.51675        3.05490       -2.24576
H         -7.96639        1.04746        0.75604
H         -8.15140        0.68949       -0.99876
H         -6.67767        0.14115       -0.12065
H         -8.37325        3.50287        0.25139
H         -7.37549        4.35889       -0.98792
H         -8.52833        3.09786       -1.49747
