80
speciation977.ct
Na         1.10074        0.53738        0.02526
Mg         3.97676       -1.14657       -0.10926
H          5.92571       -1.49325        2.25395
C          6.15587       -3.43717        1.61120
C          5.26592       -2.19740        1.71861
C          7.35791       -3.21871        0.68760
H          6.52846       -3.72020        2.62912
H          5.55359       -4.28334        1.23003
H          7.90015       -4.18434        0.59920
H          6.98546       -2.92155       -0.31234
C          8.36014       -2.17627        1.20094
H          4.53350       -2.42984        2.50464
H          7.90518       -1.16909        1.30036
H          8.76470       -2.48811        2.18705
H          9.20509       -2.09565        0.48294
C          5.79721       -0.70095       -2.65763
C          6.03434        0.47690       -3.38181
C          5.31141        1.46131       -2.76722
C          4.67378        0.87429       -1.69966
N          4.97253       -0.44169       -1.62255
C          3.75686        1.58849       -0.74243
N          3.21679        0.66957        0.28643
C          3.57670        0.96720        1.67581
H          6.64707        0.57572       -4.26977
H          6.20073       -1.67266       -2.89820
H          5.25578        2.50263       -3.06329
H          2.90955        2.02802       -1.30620
H          4.33374        2.42854       -0.30776
C          3.09774        2.34825        2.16337
C          2.83930       -0.09539        2.50789
C          5.11231        0.91486        1.81530
H          2.00300        2.45899        2.03139
H          3.34700        2.46355        3.24151
H          3.60254        3.17598        1.62531
H          2.98431       -1.10459        2.09993
H          3.12764       -0.05846        3.57783
H          1.74116        0.06537        2.43269
H          5.52483        0.15401        1.13862
H          5.59842        1.83145        1.42916
H          5.42654        0.78295        2.87211
Na        -0.34305       -3.14933        1.88373
Mg         0.90769       -6.30901        1.07889
H          1.35859       -8.82817        0.65419
C          0.12478       -8.33201       -1.05278
C          0.47857       -8.19141        0.42008
C          1.29990       -7.91332       -1.93912
H         -0.12350       -9.39835       -1.25195
H         -0.76601       -7.70738       -1.27664
H          1.55176       -6.84728       -1.75039
H          2.18888       -8.53848       -1.70059
C          0.95813       -8.09877       -3.41466
H         -0.37191       -8.53846        1.04387
H          0.71966       -9.16427       -3.62338
H          0.08515       -7.46983       -3.68978
H          1.82606       -7.80172       -4.03974
C          1.61697       -1.81000       -1.89958
C          0.59671       -2.71259       -2.13427
C          0.72871       -3.71361       -1.19702
C          1.82152       -3.37171       -0.42468
N          2.37250       -2.20587       -0.85528
C          2.35546       -4.16173        0.71159
N          1.32629       -4.47275        1.72155
C          1.84755       -5.11479        2.98108
H         -0.16893       -2.65325       -2.89937
H          1.78445       -0.89778       -2.46103
H          0.09645       -4.58882       -1.08397
H          2.75897       -5.10410        0.28917
H          3.16579       -3.56161        1.12630
C          3.09761       -4.43716        3.54929
C          0.74732       -5.03811        4.05929
C          2.21354       -6.61766        2.72931
H          2.90416       -3.36325        3.74502
H          3.39635       -4.92310        4.50530
H          3.95697       -4.58508        2.87041
H         -0.17672       -5.54791        3.72024
H          1.08246       -5.51604        5.00628
H          0.49641       -3.97655        4.27301
H          1.29725       -7.24381        2.71617
H          2.74275       -6.74026        1.75863
H          2.88184       -7.07777        3.48046
