110
speciation2280.ct
Na         5.07048       -0.23317        2.80857
Mg         2.23386        0.03346       -2.80966
C          5.76166        0.73980        5.70785
C          3.94300        1.90930        4.78109
O          5.20541        1.31267        4.53327
C          4.90542       -0.35968        6.35926
C          3.37696        2.49346        3.49219
H          6.72909        0.28175        5.41606
H          6.00333        1.53172        6.45113
H          3.19304        1.17512        5.14053
H          4.05499        2.74335        5.50919
H          3.18924        1.68527        2.75288
H          2.41080        2.99925        3.70980
H          4.07784        3.23511        3.05665
H          4.62882       -1.13225        5.61185
H          5.48067       -0.83940        7.17844
H          3.98648        0.05765        6.82219
H          4.98275        1.13933       -2.78709
C          4.03235        3.04264       -2.88517
C          3.95880        1.50739       -2.56321
C          4.44443        3.40098       -4.33305
H          3.12188        3.59811       -2.58426
H          4.85083        3.44081       -2.24552
H          4.80295        4.45665       -4.39236
H          5.29113        2.74989       -4.63051
C          3.30460        3.29516       -5.33820
H          3.36919        0.95003       -3.30408
H          3.71012        3.26261       -6.37276
H          2.72682        2.38743       -5.14937
H          2.62909        4.17570       -5.25758
C          2.30211       -3.04069       -2.43964
C          2.51296       -4.12955       -1.60322
C          2.96025       -3.62490       -0.42811
C          3.07169       -2.25341       -0.60135
N          2.63321       -1.87241       -1.84353
C          3.61371       -1.36673        0.48265
N          4.93265       -1.81232        1.04670
C          6.06137       -1.96663        0.04100
H          2.35140       -5.18131       -1.82521
H          1.92859       -3.13458       -3.44846
H          3.23201       -4.19701        0.44888
H          2.88791       -1.36824        1.33398
H          3.67848       -0.31959        0.12348
C          6.35329       -0.65691       -0.70156
C          7.32744       -2.42833        0.78208
C          5.82677       -3.06809       -1.04629
H          6.49866        0.18525        0.00178
H          7.26323       -0.76231       -1.33588
H          5.51359       -0.43444       -1.38249
H          7.14881       -3.40480        1.28307
H          8.15969       -2.59106        0.05579
H          7.66113       -1.68527        1.52898
H          5.59195       -4.05372       -0.58941
H          5.06477       -2.79853       -1.79527
H          6.71873       -3.20646       -1.69298
Na         4.93245       -4.00405        1.94848
Mg        -2.82171        3.92130       -2.69170
C          3.95769       -6.92047        2.14635
C          4.81196       -6.26941        4.23847
O          4.93226       -6.14954        2.83123
C          2.50419       -6.49952        2.42130
C          5.85054       -5.39770        4.93019
H          4.14529       -6.78085        1.06104
H          4.09816       -8.00533        2.34716
H          3.82304       -5.93958        4.61620
H          5.00991       -7.32337        4.53686
H          5.64148       -4.32447        4.73404
H          5.80347       -5.57132        6.02757
H          6.87089       -5.64718        4.57252
H          2.37222       -5.41149        2.25347
H          1.82397       -7.05399        1.74190
H          2.19206       -6.74799        3.45610
H          0.75941       -0.80192       -5.06512
C          2.54943       -0.59954       -6.25822
C          1.65810       -0.15478       -5.06869
C          2.99279       -2.05436       -6.10943
H          1.97638       -0.50554       -7.21614
H          3.43429        0.06976       -6.34443
H          3.51849       -2.15787       -5.14109
H          2.09256       -2.70763       -6.11975
C          3.94172       -2.51363       -7.22068
H          1.29005        0.85396       -5.34770
H          3.45841       -2.47532       -8.22125
H          4.85913       -1.88762       -7.23558
H          4.24357       -3.56516       -7.02157
C         -1.27016        4.78297       -0.40160
C         -0.08971        4.62551        0.29378
C          0.64509        3.67717       -0.38457
C         -0.12239        3.28923       -1.46561
N         -1.28965        3.97245       -1.47755
C          0.28729        2.23903       -2.47048
N          0.58938        0.91697       -1.83468
C         -0.59869        0.15671       -1.33833
H          0.19695        5.14213        1.19872
H         -2.07844        5.45126       -0.13100
H          1.62422        3.30222       -0.11407
H          1.19883        2.60308       -2.97104
H         -0.46075        2.14259       -3.28276
C         -1.71242        0.01334       -2.38546
C         -0.13529       -1.24111       -0.94869
C         -1.16882        0.79740       -0.04473
H         -1.31062       -0.44064       -3.31539
H         -2.52176       -0.64336       -1.99521
H         -2.18486        0.98693       -2.62423
H          0.67084       -1.18645       -0.18800
H         -0.96708       -1.83886       -0.51718
H          0.19398       -1.77204       -1.85584
H         -0.37139        0.92233        0.72072
H         -1.65581        1.76887       -0.22458
H         -1.96460        0.15421        0.38694
