96
speciation1496.ct
Na         5.93056       -4.28423        6.83909
Mg         6.58601       -4.91818       -2.53825
C          4.15911       -6.61322       -3.37942
C          3.79335       -4.33530       -2.77822
O          4.66000       -5.46452       -2.68249
C          3.70141       -6.40458       -4.83563
C          2.43035       -4.54351       -2.08898
H          4.94475       -7.39310       -3.37225
H          3.31482       -7.05305       -2.80050
H          4.28136       -3.48747       -2.26066
H          3.66615       -3.99185       -3.82530
H          2.56596       -4.81777       -1.02264
H          1.83765       -3.60384       -2.13974
H          1.82992       -5.33094       -2.59093
H          4.53735       -6.03877       -5.45602
H          3.34829       -7.37305       -5.25218
H          2.84034       -5.70732       -4.91214
H          6.56167       -2.97267       -4.40455
C          7.20733       -4.43307       -5.85338
C          7.18828       -3.88675       -4.42572
C          7.82414       -3.37947       -6.79439
H          7.82623       -5.34979       -5.90971
H          6.18271       -4.68241       -6.17794
H          7.17613       -2.47736       -6.80142
H          8.83824       -3.07503       -6.44097
C          7.98012       -3.91966       -8.20585
H          8.23801       -3.58985       -4.30301
H          8.72569       -4.74481       -8.21172
H          7.00681       -4.29482       -8.57930
H          8.34352       -3.10895       -8.87177
C          7.50515       -6.71626        2.09312
C          7.81030       -8.01518        2.43868
C          7.24274       -8.24141        3.67019
C          6.61156       -7.07007        4.01367
N          6.77596       -6.15386        3.06389
C          5.82638       -6.78112        5.24299
N          5.25083       -5.41506        5.15910
C          3.77207       -5.34579        5.04868
H          8.37999       -8.72580        1.87225
H          7.79363       -6.20868        1.19300
H          7.28339       -9.16234        4.23730
H          6.50207       -6.84753        6.11960
H          5.05947       -7.57135        5.33073
C          3.06572       -6.02248        6.24745
C          3.36235       -3.86437        5.06187
C          3.30392       -5.96375        3.71352
H          3.40853       -5.57022        7.20210
H          1.96523       -5.88461        6.16877
H          3.23544       -7.11427        6.29613
H          3.77012       -3.34205        4.18438
H          2.25729       -3.75419        5.01965
H          3.73163       -3.36052        5.98098
H          3.80476       -5.45438        2.86037
H          3.54325       -7.04481        3.65561
H          2.20583       -5.84766        3.58950
Mg         5.95052       -4.54748        3.51905
C          8.80272       -6.82507       -3.45519
C          7.84185       -7.58577       -1.42849
O          7.87871       -6.53356       -2.39265
C          8.53399       -8.12219       -4.25910
C          9.20035       -7.85367       -0.72794
H          8.81025       -5.98565       -4.15373
H          9.84914       -6.81907       -3.09293
H          7.08272       -7.34513       -0.66266
H          7.46875       -8.52423       -1.88819
H          9.50233       -7.00581       -0.08483
H          9.12702       -8.77116       -0.11854
H         10.03778       -8.06925       -1.41674
H          7.54080       -8.09209       -4.75098
H          9.31309       -8.24254       -5.04409
H          8.60840       -9.03898       -3.63627
C          5.49992       -1.65940        3.24928
C          5.22622       -0.69648        2.30442
C          5.24911       -1.33312        1.07463
C          5.58312       -2.65727        1.31588
N          5.69430       -2.84889        2.64658
C          5.79744       -3.77814        0.28827
N          6.67760       -3.43502       -0.88460
C          8.03777       -2.86503       -0.60981
H          5.02202        0.35016        2.49883
H          5.53119       -1.50892        4.32078
H          5.07525       -0.86438        0.11735
H          6.15884       -4.67075        0.80532
H          4.79094       -4.01543       -0.09898
C          8.91682       -3.90330        0.08889
C          8.65906       -2.53745       -1.95236
C          8.08627       -1.54059        0.19646
H          8.88455       -4.84878       -0.48937
H          9.97045       -3.55474        0.13261
H          8.56142       -4.08244        1.12217
H          7.97055       -1.87083       -2.53521
H          9.64448       -2.04096       -1.86066
H          8.83713       -3.50293       -2.42495
H          7.45657       -0.75394       -0.27297
H          7.83940       -1.66930        1.26481
H          9.12370       -1.14565        0.21862
