81
speciation417.ct
Na         1.05039        0.08573        0.01053
Mg         5.04501       -3.97412        1.20916
C         -1.76632       -0.88719       -0.89303
C         -1.85918        1.35910       -0.18103
O         -1.26961        0.08573        0.01053
C         -1.47712       -0.59256       -2.37105
C         -1.24774        2.36634        0.78569
H         -1.25865       -1.84189       -0.64005
H         -2.85211       -1.06275       -0.72767
H         -1.68842        1.75732       -1.20235
H         -2.94831        1.30167        0.03781
H         -0.17121        2.51771        0.55530
H         -1.76958        3.34258        0.68187
H         -1.35225        2.01606        1.83354
H         -0.39641       -0.38870       -2.52127
H         -1.76625       -1.47245       -2.98335
H         -2.07553        0.26585       -2.73963
H          5.72630       -4.71050        3.62156
C          7.56959       -3.65986        3.23729
C          6.40286       -4.53512        2.74633
C          8.60919       -3.39572        2.14045
H          7.18788       -2.68855        3.62845
H          8.07436       -4.19312        4.07530
H          8.99079       -4.36150        1.74239
H          8.13812       -2.82500        1.31245
C          9.80149       -2.60183        2.68519
H          6.79332       -5.51000        2.40996
H          9.46748       -1.62740        3.10028
H         10.31859       -3.17568        3.48555
H         10.53200       -2.40831        1.87039
C          6.02412       -0.76875       -3.01774
C          6.27033        0.46519       -3.57890
C          5.46205        1.36615       -2.91733
C          4.77202        0.63537       -1.97034
N          5.09747       -0.65559       -2.04003
C          3.77452        1.14266       -0.97761
N          3.42039        0.08573        0.01053
C          4.08430        0.25969        1.34855
H          6.95547        0.67376       -4.39013
H          6.49109       -1.68819       -3.34139
H          5.39468        2.42857       -3.10458
H          2.86849        1.46938       -1.52640
H          4.20300        2.04129       -0.49933
C          3.60116        1.55027        2.05874
C          3.74676       -0.93016        2.26596
C          5.62591        0.27622        1.22139
H          2.49208        1.57970        2.10760
H          3.99947        1.59992        3.09603
H          3.95212        2.47307        1.55769
H          4.13505       -1.87109        1.82902
H          4.25368       -0.82251        3.25201
H          2.65751       -1.00615        2.46367
H          5.98050       -0.65081        0.72137
H          5.98873        1.15190        0.64853
H          6.09854        0.32530        2.22817
Mg         4.00629       -1.64656       -0.77356
C          0.84298       -6.75172        1.04723
C          1.91911       -6.75399        1.90914
C          2.56948       -5.54316        1.76586
C          1.91769       -4.84119        0.83936
N          0.79346       -5.53576        0.35245
C          2.34139       -3.51363        0.31347
N          3.72418       -3.53419       -0.23010
C          3.96798       -4.32197       -1.46189
H          2.20679       -7.56896        2.55683
H          0.14328       -7.56207        0.90614
H          3.47161       -5.23277        2.27656
H          2.27888       -2.80293        1.15790
H          1.62663       -3.13580       -0.44286
C          3.08144       -3.81493       -2.62119
C          5.43885       -4.12226       -1.82835
C          3.77156       -5.83827       -1.28118
H          3.23548       -2.72748       -2.79502
H          3.32460       -4.35853       -3.55812
H          2.00652       -3.99383       -2.42053
H          6.11294       -4.50934       -1.03468
H          5.68603       -4.62694       -2.78880
H          5.65176       -3.05828       -1.92562
H          4.38597       -6.21428       -0.43470
H          2.71830       -6.11308       -1.13612
H          4.07947       -6.37307       -2.20399
