110
speciation1895.ct
Na         1.22509        0.03872       -0.33518
Mg        -2.40691        1.66537       -0.06167
C          1.23914       -2.90371       -1.80008
C          1.93134       -1.13475       -3.25101
O          1.41172       -1.48578       -1.97209
C          2.41163       -3.81089       -2.26199
C          0.89695       -1.30627       -4.37286
H          1.10301       -3.10064       -0.72189
H          0.30216       -3.24416       -2.29232
H          2.26342       -0.08009       -3.22670
H          2.86830       -1.67628       -3.48719
H          0.03961       -0.61927       -4.21999
H          1.36916       -1.07793       -5.35201
H          0.51690       -2.34824       -4.42310
H          3.36806       -3.50132       -1.79279
H          2.21160       -4.86871       -1.98587
H          2.52797       -3.81128       -3.36879
H         -3.22750        4.23395        0.91246
C         -5.07099        3.78282        0.10302
C         -3.54524        3.70975        0.01533
C         -5.63107        5.19406        0.33570
H         -5.50576        3.43124       -0.83302
H         -5.40738        3.16276        0.94586
H         -5.26610        5.60193        1.30490
H         -5.31408        5.87798       -0.48106
C         -7.16057        5.12904        0.36405
H         -3.25129        4.35822       -0.83106
H         -7.54116        4.73867       -0.60524
H         -7.50266        4.45221        1.17738
H         -7.59183        6.13654        0.53366
C         -0.53758        6.04241        2.07296
C         -1.61989        5.38254        2.60864
C         -1.39944        4.03330        2.40155
C         -0.21471        3.93133        1.70660
N          0.33427        5.15733        1.55650
C          0.41248        2.64912        1.21925
N         -0.11655        2.06761       -0.07599
C          0.43893        2.84995       -1.26081
H         -2.47977        5.83859        3.08181
H         -0.39588        7.11578        2.04898
H         -2.05683        3.22412        2.69226
H          0.34575        1.95357        2.03668
H          1.50629        2.74659        1.23421
C          1.98077        3.04088       -1.20063
C          0.20482        2.06643       -2.54235
C         -0.24507        4.22206       -1.48113
H          2.48691        2.05829       -1.10583
H          2.35216        3.52642       -2.12848
H          2.31730        3.71304       -0.39338
H         -0.82841        2.12727       -2.79748
H          0.70932        2.53668       -3.41370
H          0.51729        1.01961       -2.43382
H         -1.32220        4.08471       -1.65579
H         -0.11756        4.94725       -0.67970
H          0.16837        4.72307       -2.38164
Na         2.15867        5.71971        0.60801
Mg        -6.04521       -2.42715        3.71586
C          3.94617        0.38548        1.04910
C          3.16694       -1.86334        1.14654
O          2.81361       -0.48361        1.06600
C          5.01271        0.07330       -0.01575
C          3.83201       -2.25336        2.47830
H          3.56556        1.40339        0.84985
H          4.41043        0.44447        2.05565
H          2.23570       -2.45684        1.09452
H          3.78804       -2.18499        0.28707
H          3.14735       -2.05312        3.33088
H          4.06882       -3.33986        2.46563
H          4.78989       -1.71646        2.64295
H          4.54759        0.01016       -1.01993
H          5.78081        0.87382       -0.01910
H          5.54851       -0.87613        0.20839
H         -2.58957        1.36625       -2.83613
C         -4.21870        0.21615       -2.87386
C         -2.94045        0.63253       -2.11916
C         -5.19171        1.39862       -2.88129
H         -3.98277       -0.08585       -3.91828
H         -4.66760       -0.68035       -2.42480
H         -5.32959        1.70743       -1.84688
H         -4.76415        2.25069       -3.45542
C         -6.57589        1.05129       -3.39812
H         -2.26382       -0.24918       -2.11197
H         -6.53316        0.74139       -4.45970
H         -7.01287        0.23919       -2.77773
H         -7.22659        1.94832       -3.30010
C         -6.24947       -2.56336        0.80430
C         -5.96010       -1.89210       -0.36167
C         -5.37596       -0.70970        0.02860
C         -5.31686       -0.70724        1.36555
N         -5.86224       -1.83273        1.87042
C         -4.60116        0.38383        2.11001
N         -3.14843        0.48675        1.71498
C         -2.34269       -0.70821        2.15043
H         -6.13043       -2.23033       -1.37870
H         -6.69605       -3.55205        0.85714
H         -4.99389        0.09609       -0.53004
H         -4.72151        0.24062        3.20092
H         -5.11376        1.32851        1.90226
C         -2.59335       -1.96293        1.28481
C         -0.89072       -0.35619        1.98642
C         -2.54701       -1.04681        3.65629
H         -2.54553       -1.71190        0.20521
H         -1.84301       -2.74593        1.51253
H         -3.54884       -2.45318        1.51420
H         -0.68058        0.42191        2.73326
H         -0.22266       -1.21176        2.21560
H         -0.71332       -0.04362        0.94262
H         -2.36243       -0.14411        4.28306
H         -3.56349       -1.42614        3.88173
H         -1.84006       -1.83989        3.97856
