68
speciation141.ct
Na         1.73387       -0.08794       -0.65983
Mg         2.22161        0.13796        0.87246
C          2.27585        0.28075        4.03672
C          4.42411        0.76533        3.30460
O          3.13920        0.26550        2.88937
C          1.97303        1.68373        4.62567
C          5.44825        0.79798        2.20610
H          1.31270       -0.18124        3.76346
H          2.68801       -0.35268        4.86155
H          4.36505        1.82554        3.64962
H          4.85243        0.13942        4.12356
H          5.10218        1.53017        1.46967
H          6.42009        1.16816        2.59774
H          5.60006       -0.20636        1.76945
H          1.66274        2.37682        3.85012
H          1.15892        1.61974        5.37780
H          2.84162        2.15779        5.12476
C          5.17875        0.64732       -0.91531
C          6.16907       -0.28515       -1.24428
C          5.50715       -1.43515       -1.57102
C          4.19030       -1.14317       -1.39571
N          3.95442        0.08167       -0.94257
C          2.98818       -1.92791       -1.57770
N          2.20944       -1.83335       -0.32565
C          2.44171       -2.88002        0.67260
H          7.23982       -0.14738       -1.23528
H          5.39106        1.66455       -0.61398
H          5.93050       -2.39031       -1.87990
H          3.14907       -2.92966       -1.99865
H          2.40176       -1.39823       -2.36648
C          3.83086       -2.74042        1.30327
C          1.36967       -2.70161        1.74547
C          2.27936       -4.28009        0.04214
H          3.94988       -1.73159        1.72908
H          3.96689       -3.48864        2.10899
H          4.63032       -2.90565        0.55432
H          0.36549       -2.82377        1.30240
H          1.48687       -3.44731        2.55665
H          1.42890       -1.68416        2.16879
H          1.29555       -4.34973       -0.47397
H          3.07752       -4.50811       -0.69122
H          2.35241       -5.06909        0.81262
Na         2.77720        2.32839       -1.69296
C         -1.48480       -0.95827        0.21700
C         -2.59973       -0.14397        0.31725
C         -2.19272        1.11541       -0.06937
C         -0.85676        0.98452       -0.39347
N         -0.41656       -0.23760       -0.19544
C          0.09563        1.95408       -0.94921
N          1.34564        2.00608       -0.14136
C          1.37559        3.13193        0.79749
H         -3.59385       -0.43641        0.63460
H         -1.47758       -2.01272        0.44958
H         -2.80386        2.00669       -0.12236
H         -0.40527        2.91622       -1.12833
H          0.36478        1.55744       -1.95046
C          0.26480        2.92324        1.84497
C          2.75913        3.11020        1.41569
C          1.24382        4.51216        0.11634
H          0.32530        1.88892        2.25441
H          0.32280        3.67902        2.65264
H         -0.74042        3.01445        1.39076
H          3.54737        3.26184        0.64592
H          2.88065        3.84635        2.23407
H          2.90265        2.12219        1.79318
H          2.02908        4.62382       -0.66307
H          0.26067        4.69793       -0.34809
H          1.37623        5.31272        0.87322
