110
speciation2129.ct
Na         1.05995       -0.02952        0.07440
Mg         7.29227        4.39653       -1.29856
C         -1.69697       -1.33159        0.46212
C         -1.70462        0.33537       -1.23268
O         -1.26005       -0.02952        0.07440
C         -1.35205       -2.47460       -0.51157
C         -3.22895        0.53147       -1.35987
H         -1.19832       -1.55998        1.42496
H         -2.78449       -1.33606        0.68983
H         -1.23525        1.30583       -1.50139
H         -1.35162       -0.38644       -1.99409
H         -3.57900        1.40971       -0.77678
H         -3.48277        0.70834       -2.42812
H         -3.79869       -0.36518       -1.04437
H         -0.27427       -2.45282       -0.77467
H         -1.58184       -3.44943       -0.03113
H         -1.96521       -2.42734       -1.43742
H          7.00951        1.57063       -0.81903
C          9.14067        1.60562       -1.12142
C          7.72143        2.09050       -1.49372
C          9.32242        0.07347       -1.25586
H          9.89049        2.11514       -1.75964
H          9.32351        1.87466       -0.06146
H          8.58655       -0.43671       -0.59861
H          9.14796       -0.26593       -2.30225
C         10.73234       -0.36711       -0.83446
H          7.50430        1.68865       -2.50713
H         11.49991        0.00336       -1.54810
H         10.97509        0.01664        0.17924
H         10.79375       -1.47740       -0.80929
C          3.30018       10.29657       -3.10460
C          4.28442       10.77479       -2.19982
C          5.04261        9.76005       -1.48513
C          4.42304        8.54816       -1.77175
N          3.41780        8.98864       -3.18117
C          3.76638        3.38534       -0.64775
N          3.42995       -0.02952        0.07440
C          3.82925       -1.10270       -0.84476
H          4.34950       11.82710       -1.95232
H          2.38233       10.84278       -3.34541
H          5.81869        9.98614       -0.77496
H          4.55794        3.39351        0.18167
H          2.76490        3.29560       -0.18674
C          5.32895       -1.03455       -1.15547
C          3.54396       -2.43597       -0.12448
C          2.99886       -1.06379       -2.13118
H          5.92028       -1.07439       -0.21454
H          5.63052       -1.90259       -1.78441
H          5.57328       -0.10372       -1.70136
H          2.47668       -2.49710        0.18259
H          3.76786       -3.30642       -0.77953
H          4.17071       -2.52260        0.79011
H          1.91376       -1.12767       -1.89934
H          3.20032       -0.13904       -2.69535
H          3.25806       -1.92987       -2.78051
Na         4.28622        2.15093       -1.16781
Mg         2.91660        7.06475       -3.26810
C          8.56647        6.88763       -2.31553
C          8.32263        5.23192       -3.90282
O          8.42921        5.48095       -2.51372
C          7.27357        7.66540       -2.58915
C          8.16132        3.75876       -4.18429
H          8.80418        7.07645       -1.24571
H          9.46619        7.28780       -2.84722
H          7.44551        5.74433       -4.34548
H          9.25885        5.55130       -4.41327
H          7.21633        3.40901       -3.74800
H          8.09742        3.59709       -5.27791
H          9.02166        3.18954       -3.77753
H          6.62397        7.20595       -1.87126
H          7.44749        8.75239       -2.40832
H          6.61964        7.56254       -3.48794
H          7.79700        6.01530        0.90144
C          9.32777        4.86930        1.29416
C          7.97279        4.93691        0.69903
C          9.28655        5.39231        2.75405
H          9.67570        3.82585        1.24366
H          9.96738        5.53322        0.67378
H         10.32364        5.40428        3.13366
H          8.90280        6.44255        2.79749
C          8.42477        4.51437        3.67380
H          7.32303        4.25624        1.27586
H          7.34766        4.49202        3.39706
H          8.81699        3.47870        3.63882
H          8.46372        4.90687        4.70894
C          1.16910        4.72341       -3.61847
C          1.13760        3.35719       -3.61915
C          2.44253        2.95103       -3.36000
C          3.20998        4.12007       -3.19603
N          2.41539        5.14087       -3.35502
C          4.69704        4.37322       -2.94596
N          5.17325        4.79779       -1.53691
C          4.27194        5.59855       -0.26256
H          0.25659        2.74728       -3.80072
H          0.33626        5.39287       -3.80605
H          2.74556        1.92227       -3.30208
H          5.03965        5.05575       -3.75192
H          5.13199        3.36880       -3.14845
C          2.72178        5.38446        0.41382
C          5.14414        5.72576        0.94774
C          3.79995        6.60816       -0.70570
H          2.74817        4.68855        1.26740
H          2.20089        6.21485        0.95484
H          1.92974        5.10859       -0.36845
H          5.98462        6.12037        0.44304
H          4.76210        6.43606        1.68555
H          5.30699        4.74999        1.42305
H          4.81711        6.72674       -1.00976
H          3.14114        6.50121       -1.57804
H          3.51275        7.46182        0.00310
