95
speciation1666.ct
Na         1.80260        1.83820       -0.68706
Mg        -0.18605        3.72801        4.66729
C         -1.36324        1.49484        5.46598
C         -0.80271        2.62869        7.42434
O         -0.48242        2.39100        6.06999
C         -2.75895        2.11169        5.23672
C         -0.66751        1.35258        8.27284
H         -0.79546        1.27959        4.59147
H         -1.40118        0.48075        5.90322
H         -0.07056        3.36538        7.81158
H         -1.81179        3.06581        7.54547
H          0.35267        0.92844        8.15792
H         -0.86216        1.58716        9.33416
H         -1.40944        0.57539        7.99074
H         -2.67497        3.09974        4.74885
H         -3.42083        1.51060        4.61096
H         -3.30040        2.19348        6.19717
H         -2.20097        4.83055        6.11351
C         -1.99653        6.63663        5.00090
C         -1.37006        5.37117        5.62033
C         -2.97829        6.32036        3.86340
H         -2.52431        7.20167        5.80392
H         -1.18208        7.27778        4.60148
H         -2.39044        5.81487        3.07250
H         -3.79506        5.63997        4.19527
C         -3.61433        7.58791        3.27259
H         -0.67938        5.70122        6.42329
H         -4.49609        7.91358        3.87076
H         -2.88890        8.42890        3.22270
H         -3.96402        7.37825        2.23762
C          3.33903       -1.00614       -1.51671
C          2.94535       -2.15266       -2.19139
C          1.61038       -1.99361       -2.49199
C          1.25024       -0.76936       -1.97189
N          2.30325       -0.15065       -1.40764
C         -0.07573       -0.15249       -2.05160
N         -0.07398        1.12573       -1.31939
C         -1.05154        2.12415       -1.85335
H          3.55598       -3.00664       -2.45004
H          4.33323       -0.80190       -1.14988
H          0.96988       -2.68043       -3.02724
H         -0.84221       -0.82576       -1.59641
H         -0.29871       -0.04162       -3.12052
C         -2.49304        1.57085       -1.79584
C         -1.01056        3.37232       -0.96410
C         -0.71813        2.58477       -3.29828
H         -2.75737        1.29351       -0.75211
H         -3.21988        2.33936       -2.14129
H         -2.61630        0.67929       -2.44287
H         -0.01746        3.84628       -1.01793
H         -1.74796        4.13326       -1.30452
H         -1.24942        3.10424        0.08382
H          0.30768        3.00609       -3.34898
H         -0.81065        1.77916       -4.05011
H         -1.43259        3.37530       -3.61773
Na         1.50851        1.72342        2.12549
Mg        -0.74799        0.92204        0.54188
H         -0.72981       -0.00211        2.91989
C         -2.85751        0.13932        2.38544
C         -1.43893        0.71323        2.44991
C         -2.96098       -1.17366        1.61218
H         -3.20536       -0.09518        3.40398
H         -3.51979        0.89338        1.90710
H         -2.62521       -1.03019        0.56315
H         -2.32269       -1.94410        2.09683
C         -4.41549       -1.65714        1.61711
H         -1.43131        1.78090        2.74946
H         -4.77485       -1.79799        2.66097
H         -5.07173       -0.91095        1.11779
H         -4.50337       -2.62407        1.08223
C          3.01322        4.53775       -0.85103
C          3.16132        5.84178       -0.45064
C          2.37111        6.01291        0.65921
C          1.78762        4.78627        0.92408
N          2.18577        3.87547       -0.00852
C          0.81955        4.56125        2.08455
N          1.24286        3.60743        3.12157
C          2.51175        3.87034        3.84545
H          3.76355        6.59554       -0.94170
H          3.48977        4.08446       -1.71149
H          2.24999        6.93039        1.22104
H          0.60318        5.54725        2.56038
H         -0.14383        4.22710        1.65736
C          2.41740        5.21214        4.58723
C          2.67997        2.73213        4.86578
C          3.78507        3.82486        2.96029
H          1.50526        5.22743        5.21740
H          3.30358        5.36994        5.23305
H          2.36575        6.05900        3.87183
H          2.76239        1.75268        4.34217
H          3.59342        2.88243        5.48087
H          1.82065        2.67939        5.55130
H          3.84388        2.86327        2.40140
H          3.87141        4.66134        2.25402
H          4.69441        3.91761        3.59435
