81
speciation369.ct
Na         1.06375       -0.06297        0.04440
Mg         4.38693       -0.85359        1.75657
C         -1.75539        1.25902       -0.06497
C         -1.86951       -0.79426        1.08798
O         -1.25625       -0.06297        0.04440
C         -1.47822        2.14706        1.15491
C         -1.25046       -2.18297        1.16819
H         -1.24191        1.72083       -0.93480
H         -2.83881        1.25335       -0.31558
H         -1.72346       -0.32106        2.08029
H         -2.95381       -0.91986        0.87070
H         -0.17466       -2.10165        1.43706
H         -1.76864       -2.77742        1.94944
H         -1.34528       -2.70419        0.19314
H         -0.39863        2.13664        1.40414
H         -1.78221        3.18999        0.92611
H         -2.06706        1.82530        2.03754
H          3.48009       -3.24194        0.75843
C          5.27162       -3.97290        1.71266
C          4.52223       -2.90379        0.93794
C          4.59854       -4.22434        3.05879
H          5.27445       -4.91688        1.11903
H          6.33165       -3.66043        1.85418
H          4.59812       -3.28469        3.64940
H          3.54826       -4.54522        2.88326
C          5.32210       -5.31249        3.84208
H          5.01000       -2.87712       -0.05387
H          5.30169       -6.27186        3.27512
H          6.37617       -5.01992        4.02378
H          4.81061       -5.46048        4.81194
C          7.33319       -0.72591       -2.45233
C          7.60959       -0.75807       -1.10839
C          6.39867       -0.73565       -0.45945
C          5.42066       -0.67950       -1.43781
N          6.00078       -0.68463       -2.65315
C          3.90662       -0.64109       -1.24159
N          3.43375       -0.06297        0.04440
C          3.59780        1.42283        0.15560
H          8.58955       -0.79995       -0.64562
H          8.06783       -0.73468       -3.24934
H          6.25821       -0.75690        0.61184
H          3.53230       -1.67823       -1.32659
H          3.43338       -0.13911       -2.10681
C          2.89301        2.19806       -0.97714
C          2.94842        1.80143        1.46834
C          5.07130        1.89590        0.23759
H          1.82465        1.91000       -1.05406
H          2.94529        3.29267       -0.78099
H          3.39024        2.03241       -1.95398
H          3.49536        1.21293        2.21036
H          3.04497        2.88550        1.69809
H          1.87784        1.51987        1.49973
H          5.61167        1.39051        1.06554
H          5.61110        1.75432       -0.71704
H          5.11788        2.98780        0.44166
Mg         5.15448       -0.63343       -4.40752
C          7.87026       -2.45115        6.53392
C          8.70288       -1.35726        6.44345
C          8.31448       -0.63462        5.32680
C          7.26921       -1.25629        4.76905
N          6.94101       -2.43129        5.48119
C          6.51624       -0.76943        3.55417
N          5.06686       -0.52919        3.77220
C          4.72715        0.57741        4.75972
H          9.50080       -1.11125        7.13248
H          7.91043       -3.20944        7.30545
H          8.75583        0.29319        4.98677
H          6.61511       -1.56433        2.79340
H          6.99317        0.13123        3.11593
C          5.37298        1.92630        4.35669
C          3.18964        0.74707        4.89724
C          5.17076        0.24884        6.21445
H          5.08885        2.23591        3.33609
H          5.07522        2.73476        5.05842
H          6.48155        1.86902        4.39836
H          2.71796       -0.20436        5.21372
H          2.65081        1.10319        4.01899
H          2.96074        1.51745        5.67164
H          4.77512       -0.73841        6.53643
H          6.25340        0.29031        6.37750
H          4.79502        1.01658        6.92695
