96
speciation1043.ct
Na         0.69784       -0.51479        0.00299
Mg         1.99666        2.76110        4.76215
C          2.78966        1.25927       -1.29227
C          3.88362       -0.03383        0.30147
O          2.62822        0.48242       -0.11647
C          3.25504        0.41813       -2.49101
C          3.74943       -0.85028        1.55800
H          1.80447        1.71756       -1.50590
H          3.46362        2.13327       -1.13521
H          4.34449       -0.70696       -0.44825
H          4.56542        0.81585        0.53949
H          3.17610       -1.78142        1.37202
H          4.75964       -1.10166        1.94257
H          3.24426       -0.23682        2.29729
H          2.69501       -0.53290       -2.49480
H          3.09234        0.96562       -3.44146
H          4.33171        0.16421       -2.42952
H          2.96803        0.61789        6.00530
C          4.68096        1.40627        4.91479
C          3.19758        1.06882        5.02077
C          5.56607        0.15725        5.04045
H          4.88118        1.88898        3.93240
H          4.92235        2.12405        5.72531
H          5.34078       -0.38579        5.98361
H          5.37586       -0.52988        4.18747
C          7.03956        0.55194        5.04893
H          2.92897        0.32308        4.26441
H          7.29698        1.12293        4.13131
H          7.24785        1.18209        5.93979
H          7.67680       -0.35593        5.09734
C          0.50322        4.19175        2.78169
C         -0.28015        4.08476        1.66720
C         -0.41746        2.74943        1.42842
C          0.19196        2.06251        2.47494
N          0.82538        2.96694        3.24726
C          0.20221        0.56962        2.80867
N         -0.56068       -0.32939        1.91097
C         -2.06958       -0.36563        2.02175
H         -0.70791        4.87955        1.07015
H          0.82279        5.12486        3.22276
H         -0.94971        2.40261        0.58052
H         -0.10843        0.41688        3.86438
H          1.24507        0.24338        2.77885
C         -2.70606        0.93173        1.55651
C         -2.59587       -1.44963        1.06596
C         -2.61650       -0.62545        3.45841
H         -2.41679        1.07239        0.50112
H         -3.81077        0.89704        1.54298
H         -2.46040        1.74324        2.27105
H         -2.34921       -2.47158        1.41405
H         -3.70245       -1.37377        0.95536
H         -2.14859       -1.29454        0.06005
H         -2.37951       -1.63892        3.83914
H         -2.26082        0.13139        4.18872
H         -3.73002       -0.52967        3.45962
Mg         3.68848        4.47835        6.72069
C          0.16917       -3.28867       -1.23495
C          0.20641       -1.65676       -2.92434
O          0.13436       -1.89981       -1.52782
C          1.54013       -3.91695       -1.49513
C         -0.07369       -0.19207       -3.22856
H         -0.07722       -3.40791       -0.16068
H         -0.63030       -3.84630       -1.77999
H          1.19608       -1.93632       -3.34849
H         -0.58878       -2.22888       -3.44902
H          0.74220        0.45600       -2.90354
H         -0.17703       -0.04740       -4.32375
H         -0.98888        0.14165       -2.70464
H          2.32583       -3.31366       -0.99711
H          1.56266       -4.95322       -1.09584
H          1.75210       -3.97732       -2.58360
C          6.70781        4.26304        7.82182
C          7.37918        5.31780        8.32231
C          6.45822        6.36701        8.18934
C          5.32480        5.79286        7.57776
N          5.51322        4.72405        7.47570
C          3.27405        5.62492        6.64820
N          1.86374        4.23265        5.96568
C          0.96629        3.94999        7.12356
H          8.38892        5.27294        8.71120
H          7.01728        3.22719        7.69189
H          6.63876        7.38178        8.50592
H          2.72839        6.41948        7.17452
H          3.48519        6.19720        5.72128
C          0.21619        5.23495        7.56423
C         -0.09869        2.89989        6.76137
C          1.78063        3.41189        8.31636
H         -0.38222        5.64972        6.72548
H         -0.46667        5.02358        8.41487
H          0.87618        6.03196        7.93786
H          0.37066        1.94042        6.46427
H         -0.73799        2.69794        7.65460
H         -0.76646        3.25632        5.95023
H          2.32259        2.48642        8.03273
H          2.51334        4.15985        8.68258
H          1.10777        3.17992        9.17224
