83
speciation518.ct
Na         1.13543        1.85545        0.10956
Mg         3.38218        0.08335       -1.63630
C          1.60392        2.27144        3.44194
C          0.00580        3.70375        2.51179
O          1.14452        2.88789        2.23190
C          0.57314        1.38822        4.19174
C          0.33144        4.88763        3.44372
H          2.51597        1.71019        3.22046
H          2.05676        2.99955        4.13858
H         -0.39301        4.13396        1.57696
H         -0.83436        3.10420        2.90547
H          1.13677        5.51514        3.00758
H         -0.57779        5.50162        3.59465
H          0.64377        4.55612        4.45602
H          0.02645        0.69529        3.51791
H          1.09188        0.78869        4.97154
H         -0.18628        2.00434        4.70475
C         -1.88103        0.77902        0.12352
C         -2.39653       -0.49482       -0.03233
C         -1.31725       -1.33910       -0.20953
C         -0.18943       -0.54639       -0.13957
N         -0.54321        0.73861        0.06752
C          1.24432       -1.03767       -0.26924
N          2.24500        0.03300       -0.00400
C          3.22912       -0.26839        1.06689
H         -3.43995       -0.77463       -0.03232
H         -2.45990        1.67722        0.27487
H         -1.35067       -2.41166       -0.36342
H          1.39839       -1.43664       -1.29310
H          1.36643       -1.90191        0.41061
C          4.16364       -1.44664        0.72894
C          4.10046        0.98979        1.21846
C          2.51848       -0.62623        2.37351
H          4.69669       -1.27609       -0.22154
H          4.91967       -1.56922        1.53791
H          3.60340       -2.39997        0.64989
H          3.49637        1.91654        1.29969
H          4.79894        0.91712        2.07689
H          4.71749        1.09188        0.31776
H          1.62826       -0.01320        2.40849
H          2.12626       -1.65961        2.39860
H          3.18604       -0.51151        3.25559
Na         3.19413        3.84509       -2.65673
C          5.62941       -0.60900       -2.80875
C          4.78203        1.49872       -3.33491
O          4.49078        0.13243       -3.22758
C          6.75182       -0.65452       -3.85153
C          5.68152        2.23880       -2.33273
H          6.02160       -0.24005       -1.83654
H          5.30497       -1.65478       -2.62834
H          5.11798        1.71214       -4.36967
H          3.82865        1.90232       -3.06436
H          6.73119        1.89294       -2.33112
H          5.68154        3.31603       -2.61001
H          5.25519        2.19869       -1.32382
H          7.14191        0.35889       -4.07763
H          7.59499       -1.25644       -3.44906
H          6.38975       -1.12289       -4.78878
C          3.52575        3.21451       -5.81283
C          2.85791        2.30221       -6.59861
C          1.83881        1.76844       -5.81771
C          1.92989        2.36911       -4.57562
N          2.96105        3.23877       -4.59704
C          1.09091        2.06386       -3.30767
N          1.41051        2.89347       -2.07971
C          0.69830        4.18196       -1.96633
H          3.13063        2.01631       -7.60950
H          4.43570        3.74944       -6.07460
H          1.14896        0.99133       -6.12875
H          1.27240        0.99459       -3.06439
H          0.01565        2.12281       -3.57482
C         -0.83006        3.98791       -1.85923
C          1.23789        4.80304       -0.68637
C          0.98669        5.16796       -3.13200
H         -1.08215        3.26834       -1.05917
H         -1.32174        4.96076       -1.63560
H         -1.27374        3.63707       -2.81509
H          2.33685        4.94855       -0.74987
H          0.74720        5.76359       -0.43650
H          1.09366        4.08745        0.12261
H          2.05150        5.46384       -3.20420
H          0.66805        4.75783       -4.11045
H          0.44389        6.12274       -2.96480
