110
speciation2358.ct
Na         3.33277        0.32324        1.93907
Mg         5.15976        4.06843       -2.11386
C          5.17086        1.23138        4.48711
C          3.75620       -0.56566        4.94725
O          3.91210        0.60535        4.16779
C          6.46313        0.37751        4.34211
C          2.39146       -1.18528        4.71174
H          5.28457        2.13953        3.87933
H          5.14524        1.65925        5.50885
H          4.51823       -1.33247        4.68624
H          3.82150       -0.31181        6.03074
H          2.30175       -1.51553        3.65598
H          2.27625       -2.07078        5.37449
H          1.59172       -0.45338        4.94601
H          6.56848       -0.20417        3.42276
H          7.34738        1.04925        4.36288
H          6.55588       -0.35982        5.15838
H          5.44514        3.10982       -4.60882
C          3.28167        2.87951       -4.58660
C          4.65263        2.89860       -3.86759
C          2.86204        4.20428       -5.23138
H          3.30906        2.09942       -5.38027
H          2.48383        2.59142       -3.87023
H          1.87357        4.05898       -5.72383
H          2.73174        4.96252       -4.44188
C          3.84569        4.69877       -6.29102
H          4.81802        1.86707       -3.49121
H          4.83572        4.91506       -5.84156
H          3.96023        3.93994       -7.09492
H          3.46314        5.63887       -6.74074
C          3.17408        4.50824        0.15222
C          2.22471        3.93174        0.96942
C          2.11349        2.61581        0.57180
C          3.00612        2.46004       -0.47283
N          3.63962        3.61822       -0.76157
C          3.27624        1.13776       -1.15239
N          2.74097        0.03505       -0.33769
C          3.00348       -1.35028       -0.86344
H          1.67828        4.39150        1.78385
H          3.51054        5.52962        0.23957
H          1.47200        1.87417        1.02281
H          4.36615        1.01589       -1.25168
H          2.81744        1.15634       -2.15282
C          4.44518       -1.82436       -0.61136
C          2.06342       -2.32225       -0.12841
C          2.74325       -1.48753       -2.38369
H          4.65563       -1.92116        0.46732
H          4.59899       -2.84443       -1.02739
H          5.16996       -1.16272       -1.12162
H          1.00563       -2.09205       -0.36368
H          2.25918       -3.37438       -0.43528
H          2.20863       -2.25002        0.97078
H          1.70328       -1.20868       -2.64433
H          3.45580       -0.87256       -2.97333
H          2.90717       -2.54300       -2.70275
Na         7.24719        4.62020        0.42531
Mg         0.76467        0.16537       -0.53097
C         -1.62793        1.62567       -0.55929
C         -1.74389       -0.55332        0.26206
O         -1.16198        0.29241       -0.71939
C         -0.89757        2.58423       -1.48657
C         -3.24642       -0.79507        0.03580
H         -2.69220        1.68862       -0.87112
H         -1.51563        1.98565        0.48899
H         -1.25451       -1.54532        0.18175
H         -1.55697       -0.17548        1.29181
H         -3.42601       -1.21973       -0.97439
H         -3.62785       -1.50746        0.79665
H         -3.83833        0.13677        0.14694
H         -0.99065        2.25125       -2.54078
H         -1.35333        3.59497       -1.39166
H          0.17052        2.65456       -1.21840
H          5.29209        6.73813       -1.53828
C          3.81008        7.26445       -2.99889
C          4.92902        6.32155       -2.50242
C          2.60928        7.39724       -2.05966
H          4.25128        8.28137       -3.12016
H          3.47310        6.94644       -4.00376
H          2.12551        6.40930       -1.92606
H          2.94825        7.77998       -1.07233
C          1.58630        8.38654       -2.63677
H          5.68839        6.49761       -3.27344
H          2.03637        9.39684       -2.75574
H          1.22568        8.04069       -3.62947
H          0.71362        8.47387       -1.95605
C          5.12870        1.75475        1.43461
C          5.60534        0.46183        1.31726
C          6.57904        0.45726        0.37380
C          6.63823        1.69302       -0.08357
N          5.78960        2.58191        0.56316
C          7.48866        2.09636       -1.14950
N          7.25642        3.53231       -1.44687
C          8.46099        4.05001       -2.12050
H          5.26207       -0.41554        1.84100
H          4.32787        2.12263        2.04918
H          7.14765       -0.39435        0.02960
H          7.27986        1.47872       -2.04455
H          8.48951        1.87357       -0.75404
C          8.77627        3.25048       -3.42110
C          8.21277        5.49671       -2.50930
C          9.73058        4.05949       -1.19895
H          7.87145        3.21719       -4.06182
H          9.61188        3.70771       -3.98728
H          9.07722        2.20412       -3.19452
H          7.94750        6.09581       -1.61382
H          9.10584        5.94398       -2.99547
H          7.41657        5.48519       -3.25210
H          9.51779        4.59416       -0.24812
H         10.13289        3.06041       -0.94262
H         10.58012        4.56926       -1.69509
