96
speciation1782.ct
Na         1.29064       -1.18082       -0.11406
Mg         3.37397        3.49125       -1.01374
C          4.58557        6.15752        0.82352
C          5.46719        6.03234       -1.33863
O          4.81763        5.26800       -0.32002
C          5.72147        6.29345        1.90231
C          6.96159        6.35415       -1.06902
H          4.21461        7.16533        0.54884
H          3.76318        5.78118        1.40595
H          5.43445        5.44749       -2.27100
H          4.92882        6.98844       -1.54081
H          7.55451        5.43950       -0.85557
H          7.39968        6.87391       -1.94357
H          7.12916        7.08328       -0.26088
H          6.55129        6.97159        1.65438
H          5.30329        6.76858        2.82019
H          6.16803        5.33379        2.21663
H          6.70217        0.38398        0.95169
C          6.95792        2.29958        1.41963
C          6.02693        1.22728        0.79713
C          7.11063        2.10939        2.93791
H          7.96597        2.23756        0.94992
H          6.60273        3.31886        1.19220
H          6.12711        2.23531        3.42825
H          7.47160        1.08487        3.17379
C          8.10688        3.10760        3.52842
H          6.05965        1.40703       -0.29710
H          7.97609        4.12911        3.11334
H          9.13930        2.77362        3.30011
H          7.98332        3.15067        4.63180
C          5.11507        2.30109       -3.20970
C          5.60503        1.24717       -3.96602
C          5.11573        0.12057       -3.39943
C          4.30392        0.48949       -2.35003
N          4.32140        1.87413       -2.17940
C          3.46138       -0.62309       -1.69662
N          3.39466       -0.75260       -0.22832
C          3.95453       -1.97498        0.44189
H          6.22657        1.30846       -4.85584
H          5.30905        3.32977       -3.43504
H          5.27284       -0.90404       -3.80535
H          3.72498       -1.60917       -2.14737
H          2.42435       -0.44182       -2.04965
C          5.46991       -2.11681        0.29386
C          3.65387       -1.85187        1.94820
C          3.31589       -3.28827       -0.05211
H          5.95635       -1.38163        0.89979
H          5.82807       -3.06140        0.75465
H          5.80145       -2.07031       -0.76163
H          2.56809       -1.94609        2.11548
H          4.13561       -2.65213        2.54574
H          4.02199       -0.87656        2.34443
H          2.21275       -3.25601        0.02831
H          3.61228       -3.53133       -1.08871
H          3.66823       -4.12904        0.59116
Mg         3.48876        0.73551        1.01577
C          2.03817        4.09948       -3.54633
C          0.52330        4.67093       -1.81623
O          1.74931        4.00151       -2.15530
C          2.18530        5.52968       -4.07034
C         -0.74497        4.03394       -2.44454
H          2.99420        3.59596       -3.71726
H          1.32250        3.50996       -4.15946
H          0.36384        4.64217       -0.72895
H          0.56893        5.74842       -2.05664
H         -0.93507        3.01532       -2.04316
H         -1.63431        4.66247       -2.21212
H         -0.70698        3.97187       -3.55225
H          2.91096        6.08189       -3.43988
H          2.54726        5.50302       -5.11861
H          1.21119        6.06184       -4.08511
C          1.03742       -0.20648        3.17812
C         -0.29288        0.22177        3.20064
C         -0.46630        1.02420        2.09445
C          0.77765        1.01638        1.45692
N          1.70800        0.33073        2.14073
C          1.16436        1.82452        0.27252
N          2.50393        2.38256        0.55000
C          2.63918        3.19703        1.79057
H         -1.04487        0.04127        3.97030
H          1.48201       -0.81002        3.95267
H         -1.36525        1.58449        1.81899
H          0.40106        2.57648        0.02446
H          1.24562        1.14281       -0.59740
C          2.39548        2.60474        3.23402
C          4.10882        3.37435        1.83999
C          1.75064        4.44662        1.71075
H          3.00526        1.68914        3.43898
H          2.75480        3.31457        4.00745
H          1.33496        2.44212        3.47933
H          4.50309        3.52823        0.84514
H          4.47110        4.04648        2.63026
H          4.48998        2.38618        2.07566
H          1.91238        5.01588        0.78039
H          0.68152        4.14219        1.73918
H          1.91533        5.09885        2.59531
