96
speciation1302.ct
Na         1.07347        0.02135       -0.17881
Mg        -1.85580        2.01596       -0.50533
C         -1.18472       -2.16922        0.51505
C          0.10150       -1.52056        2.41142
O         -0.02683       -1.48190        0.99388
C         -2.52649       -1.64172        1.05094
C          0.26462       -2.93751        2.98089
H         -1.20559       -2.07677       -0.57839
H         -1.09726       -3.26415        0.67823
H          1.01880       -0.97600        2.67849
H         -0.73039       -0.98383        2.91651
H          1.13816       -3.44496        2.51068
H          0.43411       -2.88694        4.07711
H         -0.64508       -3.55933        2.82720
H         -2.63353       -0.55905        0.83792
H         -3.36023       -2.18775        0.56138
H         -2.63019       -1.81949        2.14218
H         -4.45957        2.24199       -0.23734
C         -3.61720        3.94619        0.85097
C         -3.60660        2.48266        0.43196
C         -3.45688        4.87533       -0.35180
H         -4.57330        4.16467        1.37579
H         -2.77502        4.11298        1.55777
H         -2.49773        4.65378       -0.86972
H         -4.29597        4.71705       -1.06385
C         -3.45319        6.33653        0.09420
H         -3.67803        1.85391        1.34447
H         -4.40878        6.58827        0.60336
H         -2.61030        6.52514        0.79414
H         -3.33617        6.99928       -0.78850
C          1.09875        3.87837        1.95502
C          1.78533        4.84727        1.25576
C          1.63606        4.57123       -0.08820
C          0.90287        3.46240       -0.20761
N          0.50070        2.97232        1.05560
C          0.60125        2.83157       -1.53058
N         -0.14792        1.56070       -1.41964
C         -0.76920        1.16271       -2.72969
H          2.36256        5.65899        1.68537
H          1.05432        3.79976        3.03263
H          2.07107        5.12910       -0.90836
H          1.56224        2.64308       -2.04768
H          0.04491        3.60227       -2.08891
C          0.26926        1.06008       -3.85113
C         -1.43983       -0.20356       -2.56460
C         -1.88387        2.15162       -3.18696
H          1.03691        0.36895       -3.51673
H         -0.18311        0.67089       -4.78915
H          0.73842        2.03635       -4.08536
H         -2.20968       -0.16456       -1.76299
H         -1.94463       -0.51338       -3.50758
H         -0.67466       -0.96503       -2.32878
H         -2.71865        2.18958       -2.45791
H         -1.53279        3.18562       -3.36620
H         -2.30728        1.82251       -4.16244
Mg         4.11298       -1.85059        0.14443
C          4.11993       -4.49113       -0.54060
C          5.19961       -4.34918        1.54450
O          4.80114       -3.64964        0.37562
C          2.82542       -5.09972        0.01740
C          6.26183       -3.57832        2.31324
H          3.84455       -3.86645       -1.41615
H          4.80015       -5.27904       -0.93167
H          4.33914       -4.54484        2.21770
H          5.68239       -5.31443        1.25756
H          5.83917       -2.63626        2.71645
H          6.61614       -4.20288        3.16346
H          7.13049       -3.35178        1.65956
H          2.14660       -4.29916        0.37719
H          2.31263       -5.67516       -0.78107
H          3.03767       -5.80602        0.84710
C          2.32279       -1.82568       -3.91463
C          3.01695       -0.93038       -4.70399
C          3.64316       -0.04100       -3.86329
C          3.33988       -0.36765       -2.60041
N          2.50504       -1.50907       -2.55230
C          3.83747        0.43629       -1.45040
N          3.40708       -0.00517       -0.09273
C          4.17797        0.75234        0.96966
H          3.03913       -0.91547       -5.78685
H          1.71697       -2.63593       -4.28163
H          4.25578        0.80528       -4.16362
H          3.49645        1.47805       -1.61691
H          4.93742        0.39293       -1.55089
C          3.92024        2.25805        0.89625
C          3.73611        0.26090        2.35369
C          5.72399        0.56640        0.89366
H          2.85036        2.37399        0.95782
H          4.39622        2.80348        1.74030
H          4.29737        2.72371       -0.03838
H          3.96875       -0.81685        2.48135
H          4.26554        0.82444        3.15676
H          2.65466        0.43448        2.49009
H          6.01406       -0.50064        0.95997
H          6.18041        1.01600       -0.01183
H          6.21275        1.11057        1.73438
