96
speciation1032.ct
Na         0.56208        1.46148       -0.30336
Mg        -0.32735       -0.72913       -0.14823
C          2.19614        1.97420       -3.09373
C          0.10996        3.08084       -3.11312
O          0.88234        2.01692       -2.52352
C          2.98754        3.29688       -3.13173
C         -0.25785        2.84286       -4.59190
H          2.80197        1.27829       -2.50226
H          2.16165        1.52482       -4.10969
H         -0.84103        3.18251       -2.56012
H          0.59029        4.07054       -3.00631
H         -0.86573        1.92354       -4.71760
H         -0.85314        3.70369       -4.96990
H          0.64088        2.76724       -5.23875
H          3.03745        3.74744       -2.12161
H          4.01997        3.10035       -3.49237
H          2.55295        4.02510       -3.84786
H         -0.02639       -3.51251       -0.27862
C         -0.98872       -3.27544       -2.18518
C         -0.80357       -2.85466       -0.71243
C          0.30133       -3.08459       -2.99275
H         -1.28009       -4.34945       -2.22860
H         -1.81559       -2.69370       -2.64166
H          0.62442       -2.02375       -2.93246
H          1.09766       -3.73293       -2.57409
C          0.11588       -3.46071       -4.46110
H         -1.73671       -3.10364       -0.16638
H         -0.16182       -4.53259       -4.56030
H         -0.67180       -2.83344       -4.92720
H          1.06970       -3.29501       -5.00909
C         -4.87406        3.48178        2.52824
C         -4.20390        4.32002        1.67298
C         -3.20183        3.57379        1.11018
C         -3.28290        2.28954        1.63610
N         -4.31685        2.24800        2.50630
C         -2.34564        1.09280        1.39339
N         -1.71951        0.90913        0.03565
C         -2.70082        0.64821       -1.06665
H         -4.41607        5.36638        1.48126
H         -5.71643        3.76465        3.14062
H         -2.52561        3.97014        0.37626
H         -2.81855        0.16028        1.76377
H         -1.56628        1.31070        2.11210
C         -3.52368        1.90466       -1.40750
C         -1.92112        0.25427       -2.31403
C         -3.68380       -0.50522       -0.75011
H         -2.85703        2.77647       -1.55433
H         -4.11212        1.75844       -2.33543
H         -4.28207        2.11894       -0.63288
H         -1.28442       -0.61840       -2.12357
H         -2.59816        0.05361       -3.17216
H         -1.25938        1.05580       -2.59994
H         -3.15369       -1.46256       -0.61787
H         -4.29183       -0.31005        0.15572
H         -4.40257       -0.63258       -1.58992
Mg        -4.96079        0.77624        3.59674
C          0.13935        3.98463        1.08737
C          2.45146        3.77423        0.98433
O          1.20946        3.10599        0.86942
C         -0.03206        5.07196        0.01838
C          3.60125        2.80749        0.81470
H         -0.71496        3.31443        1.08215
H          0.15993        4.41434        2.11121
H          2.57195        4.55618        0.20601
H          2.54551        4.21977        2.00250
H          3.56231        2.34713       -0.19321
H          4.56170        3.34811        0.94387
H          3.55972        2.02498        1.57365
H         -0.07077        4.61929       -0.97990
H         -0.97961        5.62808        0.17990
H          0.78431        5.81891        0.05413
C          3.45375       -4.28678       -0.58885
C          4.74209       -3.86087       -0.30728
C          4.67002       -2.48711       -0.11037
C          3.40166       -2.09189       -0.28249
N          2.57991       -3.18663       -0.61492
C          2.89937       -0.67226       -0.15955
N          1.60846       -0.48414        0.56063
C          1.60434       -0.89184        2.01737
H          5.60127       -4.49630       -0.22214
H          3.15742       -5.31486       -0.76507
H          5.51481       -1.85749        0.13251
H          2.74523       -0.33321       -1.18429
H          3.70298       -0.03327        0.27782
C          2.65917       -0.16181        2.88574
C          0.25141       -0.53000        2.59487
C          1.78896       -2.41322        2.23007
H          2.44226        0.92134        2.94559
H          2.60725       -0.52437        3.93795
H          3.69646       -0.33519        2.53675
H         -0.56490       -0.99320        2.00343
H          0.14668       -0.84884        3.65551
H          0.21243        0.57009        2.58041
H          1.05475       -2.99133        1.63970
H          2.81641       -2.75237        2.01120
H          1.63807       -2.67765        3.30017
