95
speciation1412.ct
Na         1.07458       -0.01583       -0.06470
Mg         1.65631       -2.15887        1.28571
C         -1.73301        1.29759        0.15548
C         -1.55720       -0.90861        0.97391
O         -1.24542       -0.01583       -0.06470
C         -3.24517        1.40155       -0.03572
C         -1.44335       -0.45562        2.43215
H         -1.43595        1.70101        1.14525
H         -1.27280        1.95818       -0.60613
H         -2.52420       -1.41770        0.76513
H         -0.72953       -1.58965        0.90964
H         -2.22329        0.28137        2.70322
H         -1.58576       -1.35016        3.07917
H         -0.42793       -0.04832        2.62507
H         -3.78569        0.75047        0.68157
H         -3.56176        2.45219        0.14145
H         -3.51888        1.11684       -1.07288
H          0.33452       -2.61299       -0.87203
C         -0.47905       -4.13273        0.47480
C          0.71955       -3.32075       -0.10500
C         -1.31889       -4.80795       -0.62261
H         -0.13877       -4.87672        1.22387
H         -1.17615       -3.50015        1.03252
H         -1.47799       -4.10955       -1.47240
H         -0.77917       -5.70540       -0.99254
C         -2.71665       -5.17461       -0.10678
H          1.37592       -4.05250       -0.62154
H         -2.66088       -5.81270        0.79994
H         -3.27646       -4.24503        0.14672
H         -3.28894       -5.70452       -0.89557
C          2.22656       -1.07239        3.94061
C          2.88957       -0.08986        4.63846
C          3.67276        0.57290        3.72014
C          3.43587       -0.01889        2.49401
N          2.57012       -1.02547        2.64235
C          4.02547        0.47286        1.20330
N          3.44458       -0.01583       -0.06470
C          3.98574       -1.35914       -0.58692
H          2.78282        0.13334        5.69368
H          1.49270       -1.75911        4.34718
H          4.30087        1.43043        3.92266
H          5.09745        0.28165        1.23702
H          3.89342        1.56570        1.20305
C          3.36654       -2.47045        0.10306
C          3.57314       -1.52022       -2.09822
C          5.46003       -1.70521       -0.34788
H          2.44797       -2.05434       -0.18995
H          3.53843       -3.47466       -0.33811
H          3.59231       -2.52636        1.18576
H          4.02999       -0.77804       -2.74295
H          3.80952       -2.54665       -2.47677
H          2.47189       -1.39368       -2.23574
H          6.06438       -1.00127       -0.83963
H          5.73793       -1.74538        0.72836
H          5.70160       -2.72063       -0.75862
Na         6.84182        3.10028       -2.44892
Mg         4.58377        1.05482       -1.34369
H          3.58094        3.01062       -2.93067
C          1.79244        2.55675       -1.79284
C          3.08488        2.11612       -2.49879
C          2.07242        3.53250       -0.64360
H          1.11812        3.05112       -2.52860
H          1.26970        1.66058       -1.41645
H          2.76885        3.06997        0.07671
H          2.53756        4.45501       -1.04888
C          0.79858        3.90959        0.11083
H          2.80123        1.44475       -3.33667
H          0.04953        4.36701       -0.57102
H          0.37073        3.01016        0.58989
H          1.03550        4.63266        0.91890
C          6.93112        1.72374        2.66039
C          6.38382        2.82436        2.01891
C          6.56432        2.63501        0.66051
C          7.17988        1.48278        0.46933
N          7.43601        0.83293        1.71568
C          7.62053        0.90358       -0.85830
N          6.61553        1.03415       -1.94434
C          6.99105        0.34702       -3.22930
H          5.90762        3.66454        2.50890
H          6.94095        1.56737        3.73243
H          6.27363        3.33059       -0.11764
H          7.94558       -0.14995       -0.67947
H          8.52854        1.45717       -1.13822
C          6.98995       -1.20694       -3.14919
C          6.00131        0.77340       -4.32939
C          8.40594        0.75576       -3.69723
H          6.00370       -1.62892       -2.95911
H          7.29415       -1.64916       -4.12630
H          7.70456       -1.58752       -2.39396
H          6.02845        1.87176       -4.47449
H          6.24710        0.28060       -5.29414
H          4.96437        0.50549       -4.08229
H          8.46662        1.85001       -3.86430
H          9.18615        0.44818       -2.97153
H          8.65731        0.24344       -4.65045
