80
speciation914.ct
Na         0.69645        0.57021       -0.13830
Mg         2.36286        4.48992       -1.21441
H          4.74013        5.36347       -0.46402
C          3.98030        7.32910       -0.85303
C          4.11683        5.84809       -1.24380
C          5.28939        8.09304       -0.69837
H          3.45303        7.87266       -1.64484
H          3.41841        7.39208        0.10340
H          5.89175        7.66577        0.13145
H          5.87120        8.03454       -1.64320
C          4.96330        9.56342       -0.40577
H          4.63139        5.75133       -2.22174
H          4.36381        9.99638       -1.23877
H          4.36782        9.65009        0.52954
H          5.89231       10.15706       -0.30041
C         -2.13248        2.71662        0.06451
C         -3.19179        3.31689       -0.59389
C         -2.74869        3.60315       -1.84378
C         -1.40196        3.29279       -1.87225
N         -1.08407        2.47744       -0.78339
C         -0.58837        3.81793       -3.06254
N          0.51603        4.81608       -2.70668
C          0.14367        6.25439       -2.88324
H         -4.19516        3.51154       -0.23003
H         -2.19328        2.41219        1.09886
H         -3.33889        4.02252       -2.65873
H         -1.29537        4.29252       -3.76343
H         -0.23568        3.02456       -3.73635
C         -0.94940        6.70988       -1.90433
C          1.38499        7.04193       -2.57981
C         -0.25584        6.62116       -4.34242
H         -0.65438        6.51227       -0.85040
H         -1.12028        7.80967       -2.01079
H         -1.90903        6.20770       -2.11365
H          2.22362        6.72614       -3.24632
H          1.24055        8.14351       -2.70831
H          1.61653        6.83275       -1.52594
H          0.54145        6.35357       -5.06521
H         -1.20711        6.16909       -4.67223
H         -0.40662        7.72345       -4.42954
Na         1.69562        4.50006       -4.47877
Mg         4.38209        2.13700       -3.24483
H          2.60492        4.96715        1.67996
C          0.46239        4.55001        1.78418
C          1.70575        5.13219        1.04798
C          0.12382        5.05297        3.19912
H         -0.41631        4.74380        1.13478
H          0.55647        3.46171        1.91451
H         -0.81449        4.51368        3.47356
H          0.88881        4.76553        3.96098
C         -0.17433        6.54463        3.30206
H          1.53374        6.22004        0.94370
H         -0.90656        6.71654        4.12017
H         -0.62319        6.92960        2.36180
H          0.74726        7.11286        3.55200
C          4.06163       -1.03215        0.79295
C          5.45505       -0.95994        0.71038
C          5.77785        0.33888        0.29641
C          4.60182        0.98897        0.15687
N          3.50303        0.19235        0.50725
C          4.57821        2.38649       -0.47130
N          3.55984        2.54438       -1.53930
C          2.39820        1.70937       -1.36630
H          6.14853       -1.76005        0.86849
H          3.51432       -1.90197        1.00359
H          6.80082        0.67671        0.08775
H          4.44504        3.13528        0.33935
H          5.58817        2.68099       -0.85554
C          1.85335        2.33204        0.03964
C          1.60485        2.05292       -2.55817
C          2.49913        0.11383       -1.75328
H          1.22195        3.17328       -0.19714
H          1.51180        1.78622        0.95497
H          2.59612        2.59037        0.80567
H          2.06758        1.69702       -3.51243
H          0.59143        1.61154       -2.46697
H          1.72550        3.08790       -2.69004
H          3.46974       -0.14616       -2.22477
H          2.16784       -0.64137       -1.01406
H          1.72479       -0.27359       -2.46850
