110
speciation2007.ct
Na         0.97987        0.03300        0.00002
Mg        -2.12210       -0.98636       -1.29394
C          0.96306       -0.19087        3.08170
C         -1.17888        0.32121        2.15393
O          0.23024        0.34245        1.97860
C          0.50187       -1.55235        3.62403
C         -1.64972        1.32458        3.21285
H          1.99696       -0.33583        2.74326
H          1.02461        0.55568        3.90258
H         -1.64667        0.61669        1.19460
H         -1.56172       -0.69819        2.36405
H         -1.34878        2.35438        2.92756
H         -2.75681        1.28581        3.29725
H         -1.22786        1.08734        4.21207
H          0.45834       -2.30303        2.81295
H          1.22745       -1.90909        4.38560
H         -0.48375       -1.47691        4.12861
H         -4.09140       -0.33376        0.02228
C         -5.33613       -1.67861       -1.07063
C         -4.12776       -0.74699       -1.00817
C         -5.60288       -2.29724       -2.44686
H         -5.22203       -2.48317       -0.31888
H         -6.23418       -1.07652       -0.79600
H         -6.53505       -2.89662       -2.35686
H         -5.77521       -1.51668       -3.22138
C         -4.47179       -3.22528       -2.88020
H         -4.30413        0.09842       -1.70681
H         -3.56973       -2.63640       -3.13691
H         -4.23396       -3.93591       -2.06107
H         -4.79549       -3.80684       -3.76931
C         -0.47019        2.88171       -3.69506
C         -1.14190        2.80745       -2.49501
C         -0.96651        1.53598       -2.01849
C         -0.19305        0.86264       -2.94976
N          0.11003        1.69746       -3.97986
C          0.25259       -0.58515       -2.85443
N         -0.16561       -1.21987       -1.57270
C          0.35315       -2.58342       -1.32143
H         -1.70262        3.60101       -2.01878
H         -0.40963        3.74893       -4.33660
H         -1.36649        1.13530       -1.10130
H          1.35367       -0.59282       -2.93820
H         -0.19142       -1.12668       -3.71423
C          1.86259       -2.52222       -1.00135
C         -0.42942       -3.10893       -0.11291
C          0.14915       -3.55754       -2.50851
H          2.07725       -1.83413       -0.16146
H          2.24533       -3.52148       -0.71139
H          2.45206       -2.18831       -1.88266
H         -1.51268       -3.17941       -0.38531
H         -0.08220       -4.10834        0.20166
H         -0.35684       -2.39464        0.72607
H         -0.92486       -3.71506       -2.73492
H          0.66876       -3.20546       -3.42452
H          0.59946       -4.54465       -2.25650
Na         1.37034        1.34684       -5.95612
Mg         5.37415       -2.32898       -8.97570
C          4.01369        0.65812        0.77447
C          3.34416        1.68476       -1.26744
O          3.06788        0.67702       -0.30487
C          4.17998        1.98873        1.52880
C          4.68717        1.49725       -1.99780
H          3.68638       -0.10527        1.49711
H          5.00192        0.27760        0.43786
H          2.55128        1.63875       -2.03978
H          3.27845        2.69925       -0.82271
H          4.71145        0.52660       -2.53494
H          4.82633        2.31610       -2.73635
H          5.55577        1.54812       -1.30524
H          3.20052        2.36743        1.88073
H          4.84617        1.84306        2.40851
H          4.67234        2.75911        0.89406
H          4.04518       -4.02085      -10.35268
C          6.03683       -4.76199      -10.75625
C          5.06205       -3.61196      -10.53075
C          7.43992       -4.25190      -11.09936
H          6.07090       -5.40038       -9.84803
H          5.65718       -5.36887      -11.60813
H          7.39127       -3.59617      -11.99725
H          7.84694       -3.66343      -10.24932
C          8.37854       -5.41695      -11.40931
H          5.02644       -2.97750      -11.44210
H          8.46527       -6.08932      -10.52983
H          7.99482       -5.99956      -12.27490
H          9.38717       -5.03077      -11.66686
C          2.33612        1.67770       -9.05714
C          3.24213        1.38034      -10.05698
C          4.13776        0.48021       -9.52109
C          3.72709        0.27829       -8.21818
N          2.63065        0.99622       -7.93237
C          4.32275       -0.55653       -7.17906
N          5.67860       -1.07745       -7.45878
C          5.99541       -2.08358       -6.38293
H          3.25269        1.78854      -11.05923
H          1.51435        2.37678       -9.13963
H          4.98557        0.03351      -10.02357
H          4.34735        0.08613       -6.28076
H          3.56912       -1.35529       -7.06252
C          5.09514       -3.35708       -6.46837
C          7.44710       -2.56516       -6.56642
C          5.87681       -1.49561       -4.94551
H          5.12762       -3.81191       -7.47457
H          5.40986       -4.11836       -5.72490
H          4.04357       -3.16447       -6.20575
H          8.16076       -1.73510       -6.40526
H          7.67518       -3.35927       -5.81360
H          7.58749       -2.99949       -7.57880
H          6.48530       -0.57358       -4.83996
H          4.82608       -1.25378       -4.67947
H          6.19668       -2.22943       -4.17684
