96
speciation1025.ct
Na         1.68582        3.81723       -2.12791
Mg        -1.70139       -0.18946        1.08845
C          1.87697        6.87716       -2.13919
C          0.54521        5.73363       -0.49398
O          1.71632        5.73290       -1.28874
C          1.94678        8.21035       -1.35834
C         -0.75111        5.74943       -1.30166
H          2.85750        6.83829       -2.62897
H          1.22975        6.83931       -3.04114
H          0.57365        4.78538        0.08143
H          0.56399        6.52191        0.28569
H         -0.73232        4.94830       -2.06920
H         -1.61123        5.57086       -0.62185
H         -0.89548        6.73401       -1.78870
H          1.06496        8.41050       -0.71702
H          2.05034        9.06878       -2.05623
H          2.84840        8.19425       -0.70771
H          0.56198        1.32214        1.20156
C          1.24067       -0.21110        2.56893
C          0.11818        0.63646        1.95335
C          1.97997       -1.13509        1.58992
H          1.99066        0.46991        3.03462
H          0.80351       -0.83151        3.37901
H          1.27433       -1.86178        1.14091
H          2.73631       -1.70049        2.17884
C          2.72515       -0.38762        0.48242
H         -0.28107        1.27829        2.76638
H          2.01369        0.10328       -0.21198
H          3.40809        0.37501        0.91529
H          3.33624       -1.11049       -0.10035
C          0.62039        0.99739       -2.90479
C         -0.25935       -0.05104       -2.82063
C         -1.21979        0.30263       -1.90548
C         -0.86356        1.55043       -1.43608
N          0.28477        1.98809       -2.06061
C         -1.62700        2.38857       -0.45307
N         -2.56208        1.65576        0.44834
C         -3.41880        2.62357        1.26849
H         -0.24411       -0.96644       -3.40114
H          1.45271        1.01681       -3.58108
H         -2.06629       -0.29708       -1.58261
H         -0.88530        2.95466        0.13037
H         -2.18270        3.08895       -1.10003
C         -4.44284        3.33093        0.34772
C         -4.27164        1.97186        2.37010
C         -2.57556        3.68362        2.03283
H         -5.05127        2.56150       -0.18013
H         -5.13767        3.96712        0.94377
H         -3.97073        3.99584       -0.39731
H         -3.63031        1.47864        3.11976
H         -4.83751        2.73437        2.95122
H         -5.08271        1.34501        1.95861
H         -1.88637        3.18700        2.74796
H         -2.00017        4.34960        1.36864
H         -3.23989        4.35655        2.62711
Mg        -2.50671       -0.34655        0.49632
C          3.72931        3.15609       -4.09774
C          4.80377        4.25012       -2.31529
O          3.57604        4.05915       -3.01268
C          4.19073        1.74768       -3.68777
C          4.70225        5.28430       -1.20065
H          2.73630        3.06034       -4.58583
H          4.40520        3.58285       -4.87140
H          5.13923        3.31763       -1.82370
H          5.57669        4.62968       -3.02255
H          3.94476        4.97741       -0.44980
H          5.68236        5.39289       -0.69849
H          4.49590        6.28672       -1.59007
H          3.53951        1.34105       -2.88889
H          4.16010        1.07414       -4.56954
H          5.23654        1.75033       -3.32065
C          0.63260       -3.26828       -1.89175
C          1.13824       -4.15443       -0.96804
C          0.19187       -4.29145        0.02838
C         -0.84525       -3.50300       -0.27046
N         -0.63024       -2.81319       -1.47644
C         -2.13280       -3.47251        0.48657
N         -2.45132       -2.21160        1.20807
C         -3.68192       -2.35668        2.03239
H          2.08835       -4.66755       -1.03600
H          1.12357       -2.97102       -2.80775
H          0.26109       -4.95542        0.88091
H         -2.06919       -4.29517        1.22977
H         -2.92672       -3.74452       -0.23827
C         -3.44543       -3.24505        3.26993
C         -3.98799       -0.98392        2.51093
C         -4.93126       -2.85051        1.23782
H         -2.57461       -2.86433        3.84688
H         -4.33978       -3.22303        3.93087
H         -3.27002       -4.30483        3.00714
H         -4.15488       -0.41362        1.58259
H         -4.89557       -0.93985        3.14987
H         -3.10647       -0.59499        3.06245
H         -5.15900       -2.17912        0.37943
H         -4.82518       -3.88634        0.85779
H         -5.82697       -2.85413        1.89973
