110
speciation2515.ct
Na         1.49268        1.54443       -0.07564
Mg         3.49737       -0.31916       -1.60598
C          1.47209        1.22190       -3.50423
C          1.19161       -1.03159       -3.42055
O          2.13855       -0.00050       -3.16444
C          2.35748        2.44828       -3.50569
C          1.73075       -2.40660       -3.12873
H          1.12818        1.16806       -4.56586
H          0.59956        1.41066       -2.84405
H          0.26907       -0.88249       -2.82136
H          0.90187       -1.04346       -4.49939
H          2.08440       -2.44960       -2.09910
H          0.91187       -3.14900       -3.27385
H          2.56326       -2.66339       -3.80007
H          3.27173        2.28059       -4.10973
H          1.80531        3.31094       -3.93832
H          2.57469        2.72473       -2.47612
H          5.07898        1.75251       -2.66720
C          6.17004        1.90903       -0.89598
C          4.88296        1.46931       -1.62119
C          7.28299        0.89547       -1.13209
H          6.48124        2.91852       -1.24508
H          6.00060        2.00983        0.18996
H          6.90266       -0.07633       -0.80495
H          7.54219        0.82716       -2.21021
C          8.52671        1.21077       -0.30654
H          4.06818        2.06189       -1.23951
H          8.98407        2.16424       -0.64042
H          8.26429        1.28561        0.77178
H          9.26646        0.39038       -0.42435
C         -1.44438        0.33678       -0.96886
C         -2.04942       -0.90060       -0.90675
C         -1.11570       -1.77432       -0.38695
C          0.02384       -1.02324       -0.17381
N         -0.17866        0.26103       -0.50147
C          1.30845       -1.51126        0.38432
N          2.37343       -0.46626        0.29850
C          3.16969       -0.43126        1.56403
H         -3.06449       -1.15742       -1.20337
H         -1.92234        1.23592       -1.32333
H         -1.25187       -2.83239       -0.18415
H          1.65052       -2.43902       -0.09188
H          1.04883       -1.82287        1.41071
C          3.86385       -1.77824        1.83788
C          4.23473        0.61493        1.38375
C          2.34066       -0.02861        2.81691
H          4.50837       -2.01609        0.99211
H          4.51347       -1.71886        2.73504
H          3.14444       -2.60880        1.98666
H          3.77289        1.60427        1.16432
H          4.89102        0.70828        2.27318
H          4.84480        0.25561        0.54488
H          1.85381        0.95844        2.67973
H          1.56891       -0.76408        3.11211
H          3.01705        0.03879        3.69889
Na        -0.87172        7.14667        0.50930
Mg        -1.28051        4.47544       -1.48016
C          5.31935       -2.96637       -1.33405
C          5.47607       -1.79773       -3.33079
O          4.75063       -1.88923       -2.10248
C          6.68208       -2.68712       -0.65539
C          4.88414       -0.81284       -4.31887
H          4.58231       -3.35049       -0.60843
H          5.46476       -3.86877       -1.97695
H          6.52511       -1.47764       -3.15542
H          5.44878       -2.77585       -3.86685
H          4.96935        0.20540       -3.95390
H          5.45594       -0.85606       -5.26706
H          3.83470       -1.03914       -4.54011
H          6.60256       -1.93831        0.15419
H          7.06647       -3.61760       -0.18415
H          7.46127       -2.37371       -1.38215
H         -1.07127        4.79122       -4.03597
C         -2.73254        3.41234       -3.92827
C         -1.37295        3.90577       -3.43682
C         -3.78985        4.52003       -3.85516
H         -2.62696        3.09458       -4.98844
H         -3.04828        2.53962       -3.31847
H         -3.92399        4.84135       -2.81043
H         -3.46407        5.39582       -4.45915
C         -5.13989        4.04044       -4.37569
H         -0.61607        3.12108       -3.59487
H         -5.05746        3.72989       -5.43857
H         -5.50363        3.18430       -3.76884
H         -5.87719        4.86820       -4.30199
C          3.10874        4.44441       -0.52753
C          2.96834        5.77940       -0.26134
C          1.76992        5.92512        0.38016
C          1.21771        4.65734        0.46765
N          2.03725        3.72414       -0.07882
C         -0.09055        4.32722        1.11245
N         -1.19033        5.03115        0.42855
C         -2.54192        4.81845        0.95408
H          3.67809        6.55737       -0.50807
H          3.97698        4.06452       -1.02147
H          1.35590        6.85111        0.73635
H         -0.23374        3.22920        1.06246
H         -0.01301        4.64747        2.16992
C         -2.64145        5.21456        2.44048
C         -3.46267        5.75175        0.15329
C         -2.96459        3.35736        0.72117
H         -2.27514        6.25736        2.57449
H         -3.69333        5.16566        2.79132
H         -2.03616        4.54720        3.08591
H         -3.30527        5.59720       -0.92654
H         -4.53172        5.57934        0.39690
H         -3.22335        6.81729        0.35974
H         -2.83709        3.10566       -0.35269
H         -2.34778        2.65761        1.32189
H         -4.02511        3.19440        0.99950
