110
speciation2108.ct
Na         2.37205        0.25067        0.64256
Mg        -0.06473        6.81958        0.10837
C          4.41115        0.00498        2.55810
C          2.98111       -1.85602        2.92192
O          3.07189       -0.45754        2.56073
C          5.31165       -0.64520        1.49514
C          3.33642       -2.14162        4.39565
H          4.36859        1.08854        2.32785
H          4.86460       -0.05048        3.56599
H          1.93784       -2.19220        2.77715
H          3.60245       -2.49758        2.27481
H          2.62390       -1.64084        5.08316
H          3.28909       -3.23791        4.58455
H          4.36858       -1.83549        4.65971
H          5.44809       -1.73637        1.63194
H          6.32099       -0.19522        1.54902
H          4.90664       -0.45401        0.48829
H         -0.32446        5.12368       -1.89217
C         -1.61085        6.78955       -2.45531
C         -1.05320        5.82254       -1.42915
C         -2.30505        6.08174       -3.62093
H         -2.35657        7.42421       -1.94649
H         -0.77695        7.41412       -2.83732
H         -1.58209        5.42236       -4.14764
H         -3.14765        5.46078       -3.24379
C         -2.84976        7.11495       -4.60536
H         -1.88402        5.23488       -0.98030
H         -3.58780        7.77579       -4.10081
H         -2.01994        7.73898       -5.00135
H         -3.34997        6.60552       -5.45456
C         -0.18683        4.42825        2.23741
C          0.28761        3.21456        2.74199
C          1.36913        2.88200        1.98240
C          1.49794        3.86622        1.02031
N          0.55753        4.88564        1.20096
C          2.59498        3.73164       -0.04264
N          2.75994        2.34365       -0.62930
C          3.57147        2.38170       -1.95227
H         -0.11730        2.62096        3.54774
H         -1.06790        4.92584        2.63632
H          1.96427        1.99397        2.09406
H          3.56347        4.02661        0.41467
H          2.34726        4.48028       -0.81138
C          5.01233        2.95221       -1.78690
C          3.85246        1.01285       -2.58015
C          2.79963        3.14006       -3.04832
H          5.62725        2.31020       -1.11124
H          5.54194        2.93440       -2.77451
H          5.04697        3.99308       -1.42833
H          2.91086        0.52068       -2.82921
H          4.38130        1.08153       -3.55813
H          4.58230        0.44302       -1.96999
H          1.78346        2.70259       -3.15399
H          2.72928        4.22377       -2.86191
H          3.30978        3.04012       -4.03446
Na         0.85021        1.39892       -0.25028
Mg         2.31134       -3.11618        0.74784
C         -2.45293        8.52915        1.60153
C         -1.58601        9.47960       -0.37703
O         -1.37235        8.48076        0.65716
C         -3.87680        8.24719        1.05934
C         -1.54090       10.96547        0.07039
H         -2.24039        7.81775        2.41790
H         -2.46577        9.51914        2.11416
H         -0.81606        9.36944       -1.15528
H         -2.53847        9.33371       -0.92407
H         -0.56330       11.22395        0.52085
H         -1.69611       11.62868       -0.81401
H         -2.35691       11.23695        0.77360
H         -3.94307        7.21901        0.65611
H         -4.61080        8.35646        1.88980
H         -4.22520        8.96802        0.28882
H          2.37917        7.27581       -1.12628
C          2.55737        9.09448        0.05343
C          1.69643        8.00452       -0.64677
C          3.48248        8.60321        1.17224
H          3.21438        9.55766       -0.71809
H          1.90506        9.90558        0.44778
H          4.17643        7.82832        0.78181
H          4.09822        9.46135        1.52780
C          2.69887        8.06415        2.35833
H          1.18179        8.55380       -1.45948
H          2.03631        8.85869        2.76424
H          2.09030        7.19363        2.04446
H          3.40541        7.74861        3.15485
C         -2.22468        0.87134        0.13844
C         -3.18793       -0.09462        0.35495
C         -2.52651       -1.29894        0.41324
C         -1.19133       -1.02597        0.24579
N         -0.99060        0.30600        0.06677
C         -0.15293       -2.11355        0.27289
N          1.23766       -1.68446       -0.02269
C          1.63379       -1.83550       -1.43285
H         -4.25370        0.05452        0.45936
H         -2.40368        1.92649        0.08073
H         -2.96940       -2.27579        0.55645
H         -0.17485       -2.57991        1.27063
H         -0.48880       -2.88263       -0.43404
C          0.82146       -0.84050       -2.30291
C          3.11963       -1.56924       -1.41613
C          1.54724       -3.26881       -2.01167
H          0.91977        0.18620       -1.92307
H          1.14208       -0.82686       -3.36172
H         -0.26194       -1.08134       -2.28665
H          3.67547       -2.28582       -0.77665
H          3.56004       -1.59441       -2.43371
H          3.25006       -0.62329       -0.91759
H          2.20270       -3.96063       -1.43572
H          0.53736       -3.70164       -2.06836
H          1.93851       -3.24826       -3.05658
