96
speciation1095.ct
Na         4.46558       -1.99086        0.41674
Mg         4.23904        1.63837        1.46913
C          6.95773       -4.01136        0.39774
C          4.91420       -5.12230        0.20302
O          5.57882       -3.99765        0.75714
C          7.21121       -3.77313       -1.09821
C          3.45209       -5.13454        0.61169
H          7.48112       -3.22986        0.97391
H          7.45319       -4.94873        0.73370
H          4.93285       -5.11406       -0.90643
H          5.36911       -6.06177        0.59108
H          2.93839       -4.25442        0.18852
H          2.96445       -6.04750        0.20607
H          3.35212       -5.12624        1.71576
H          6.67131       -2.86849       -1.44750
H          8.29854       -3.63787       -1.27468
H          6.89701       -4.64864       -1.70360
H          3.39145        3.62900       -0.08848
C          3.26124        4.98903        1.50011
C          3.11088        3.56200        0.96176
C          2.44094        6.01905        0.69085
H          2.95986        5.06873        2.56338
H          4.30919        5.23550        1.42796
H          2.59132        5.89726       -0.40586
H          1.36338        5.86405        0.91300
C          2.84548        7.45489        1.04190
H          2.03378        3.35549        1.03181
H          2.91139        7.60058        2.13994
H          3.83422        7.68674        0.59122
H          2.10947        8.17527        0.62589
C          2.71499        3.51004       -2.92461
C          1.62479        2.76933       -3.33011
C          1.80649        1.49443       -2.83854
C          2.98035        1.51876       -2.09192
N          3.54525        2.73723       -2.20296
C          3.64397        0.35700       -1.39069
N          3.32835        0.05919        0.06901
C          1.87090       -0.34144        0.30385
H          0.79939        3.12869       -3.92743
H          2.89572        4.54859       -3.14626
H          1.14427        0.65834       -3.00665
H          4.70466        0.60556       -1.46642
H          3.55386       -0.56131       -1.99941
C          1.45153       -1.49791       -0.63569
C          1.67877       -0.85895        1.73699
C          0.82655        0.79720        0.18393
H          2.14837       -2.34241       -0.52457
H          0.42547       -1.85689       -0.39210
H          1.43776       -1.19643       -1.69928
H          1.98078       -0.08124        2.46659
H          0.61043       -1.09219        1.94818
H          2.19854       -1.82125        1.88036
H          0.99423        1.58569        0.92159
H          0.68690        1.23307       -0.79500
H         -0.19598        0.39811        0.41450
Mg         5.23780        3.28220       -1.41450
C          3.49822        2.39427        4.24811
C          3.99745        0.12768        4.37265
O          3.92218        1.26320        3.48461
C          4.59450        2.98624        5.14861
C          4.44274       -1.17342        3.72668
H          3.16082        3.17310        3.55423
H          2.58485        2.17177        4.86044
H          4.72280        0.29024        5.19635
H          2.98992       -0.06302        4.79287
H          5.52083       -1.20567        3.52786
H          4.20181       -2.01379        4.40999
H          3.93310       -1.33076        2.79172
H          5.48921        3.23799        4.54683
H          4.21847        3.90616        5.64554
H          4.88621        2.29223        5.96194
C          6.46850        6.52286        2.01672
C          6.39149        6.38941        0.64713
C          6.64937        5.06141        0.33811
C          6.86676        4.41517        1.48415
N          6.76246        5.28024        2.59339
C          7.30149        3.00015        1.63757
N          6.40753        1.94579        1.09037
C          7.11912        0.63395        1.20432
H          6.16756        7.18677       -0.04694
H          6.31703        7.43334        2.58208
H          6.70334        4.63416       -0.65354
H          7.45824        2.85220        2.72401
H          8.28415        2.96440        1.12644
C          7.59585        0.32409        2.64804
C          6.13390       -0.40883        0.84632
C          8.29851        0.47899        0.20804
H          6.78008        0.52407        3.36936
H          7.92078       -0.73641        2.74138
H          8.47055        0.93690        2.93866
H          5.93383       -0.40279       -0.22872
H          6.51249       -1.40759        1.07159
H          5.23546       -0.22861        1.44466
H          7.96302        0.69803       -0.83028
H          9.15810        1.13164        0.44742
H          8.68218       -0.56644        0.22534
