81
speciation781.ct
Na         1.61276        0.61910       -0.18025
Mg         4.15099       -1.49734       -0.61107
C          6.89366       -2.73624       -1.01047
C          6.10289       -3.18901        1.18728
O          5.88375       -2.46434       -0.01969
C          7.05181       -4.21282       -1.40338
C          7.47952       -2.92351        1.86058
H          6.64386       -2.19629       -1.92232
H          7.86932       -2.29781       -0.71436
H          5.33807       -2.89838        1.92042
H          5.97399       -4.27925        1.02156
H          7.60546       -1.85466        2.12744
H          7.56536       -3.52398        2.79175
H          8.34052       -3.22980        1.22581
H          6.07625       -4.62797       -1.72736
H          7.77849       -4.29390       -2.24495
H          7.45660       -4.82020       -0.56500
H          4.87187       -7.61354       -4.17662
C          3.35158       -9.13184       -3.82697
C          4.06258       -7.83786       -3.45039
C          2.22786       -9.43786       -2.83050
H          2.92493       -9.02301       -4.84728
H          4.09014       -9.96300       -3.83061
H          2.64898       -9.53355       -1.80534
H          1.49015       -8.60577       -2.83609
C          1.51154      -10.73815       -3.18612
H          4.50647       -7.93007       -2.43606
H          1.06849      -10.67073       -4.20240
H          2.22210      -11.59165       -3.15302
H          0.69704      -10.92706       -2.45503
C          5.21056       -0.84778       -3.46269
C          5.48515        0.36405       -4.05629
C          5.13476        1.34114       -3.14367
C          4.66662        0.67277       -2.02811
N          4.72208       -0.64972       -2.22124
C          4.17755        1.29565       -0.74271
N          3.69060        0.27064        0.22782
C          3.99460        0.56606        1.65390
H          5.91003        0.51774       -5.04102
H          5.39749       -1.82114       -3.90209
H          5.22532        2.40826       -3.27436
H          3.33752        1.97729       -0.99023
H          5.00036        1.91553       -0.35339
C          3.40192        1.92872        2.07617
C          3.37026       -0.48239        2.58680
C          5.51362        0.51629        1.87139
H          2.29983        1.92827        1.91546
H          3.58879        2.11775        3.15458
H          3.82858        2.76779        1.49459
H          3.64390       -1.51075        2.27268
H          3.71692       -0.35050        3.63239
H          2.27224       -0.34287        2.65775
H          5.90512       -0.43062        1.45521
H          6.04542        1.34908        1.37942
H          5.76514        0.56436        2.95028
Mg         2.71700       -6.30465       -3.43349
C          0.35087       -4.74231       -4.25071
C         -0.07388       -3.43526       -4.36913
C          0.78357       -2.68640       -3.59424
C          1.67229       -3.58114       -3.03743
N          1.40441       -4.80901       -3.41701
C          2.80668       -3.31067       -2.13977
N          2.34876       -2.51662       -1.00937
C          1.25205       -3.09768       -0.13568
H         -0.87606       -3.06978       -4.99631
H         -0.03424       -5.58485       -4.81254
H          0.77926       -1.60427       -3.48064
H          3.53109       -2.73525       -2.71708
H          3.29697       -4.24353       -1.80341
C          1.76465       -4.31598        0.64568
C          0.82527       -2.00403        0.81389
C         -0.09278       -3.48783       -0.82919
H          2.67367       -4.05540        1.22286
H          0.98037       -4.67559        1.35063
H          1.99512       -5.14923       -0.05028
H          0.38839       -1.14562        0.26176
H          0.08684       -2.35065        1.56870
H          1.72192       -1.70741        1.29816
H         -0.51648       -2.63532       -1.40351
H         -0.03133       -4.39334       -1.45487
H         -0.86559       -3.75546       -0.07527
