110
speciation2455.ct
Na         1.21407       -0.17375        0.39179
Mg        -0.47971       -1.09446       -3.32609
C         -1.15765        1.25388        1.66059
C          0.28363        3.04942        1.28380
O          0.12558        1.62759        1.18281
C         -2.28688        1.83946        0.80873
C          1.60933        3.54642        0.75196
H         -1.21092        0.15073        1.57981
H         -1.30185        1.49603        2.73914
H         -0.46123        3.59448        0.66364
H          0.19969        3.37581        2.34662
H          1.68915        3.33158       -0.33341
H          1.65540        4.65097        0.89625
H          2.44048        3.09147        1.31095
H         -1.95870        1.77806       -0.23985
H         -3.24137        1.30044        0.97848
H         -2.46876        2.91148        1.03159
H          1.01825        0.32329       -5.02157
C          2.03878       -1.47683       -4.38133
C          1.19219       -0.26363       -4.10289
C          1.36814       -2.46933       -5.29606
H          3.03850       -1.19512       -4.77844
H          2.14882       -2.01912       -3.42361
H          2.07932       -3.24464       -5.37826
H          0.42491       -2.85027       -4.84555
C          1.20827       -2.07429       -6.73464
H          1.71411        0.36591       -3.35094
H          0.49423       -1.24150       -6.82877
H          2.20572       -1.81203       -7.15294
H          0.82933       -2.97204       -7.27517
C          0.68593       -3.40872        0.51648
C         -0.16962       -4.46218        0.23591
C         -1.25161       -3.92118       -0.40879
C         -1.01653       -2.56366       -0.48682
N          0.17140       -2.22830        0.08281
C         -1.98851       -1.59186       -1.06104
N         -2.13214       -1.71432       -2.52967
C         -3.11684       -0.78482       -3.12327
H         -0.03502       -5.50732        0.48667
H          1.62824       -3.50937        1.03352
H         -2.13040       -4.45587       -0.74797
H         -2.95573       -1.76592       -0.54213
H         -1.60162       -0.58736       -0.80313
C         -2.86955        0.68274       -2.67698
C         -2.97872       -0.81632       -4.63784
C         -4.54098       -1.21005       -2.69484
H         -1.81558        0.97490       -2.87808
H         -3.54686        1.39464       -3.19074
H         -3.10273        0.77540       -1.61162
H         -3.15321       -1.83819       -5.04077
H         -3.70517       -0.11849       -5.11074
H         -1.95842       -0.48596       -4.93660
H         -4.67271       -2.30221       -2.87024
H         -4.71556       -1.02287       -1.61354
H         -5.32215       -0.65509       -3.24918
Na        -2.68012       -3.65779       -3.42873
Mg         4.11949       -3.69455       -3.20576
C         -4.54604       -6.01425       -3.64439
C         -2.43059       -6.48876       -4.54396
O         -3.37460       -5.48038       -4.23722
C         -4.33112       -6.52435       -2.21764
C         -1.27752       -5.89897       -5.33472
H         -5.30171       -5.20227       -3.61383
H         -5.00069       -6.81299       -4.27807
H         -2.01685       -6.95209       -3.62211
H         -2.89513       -7.27387       -5.18765
H         -0.75263       -5.13722       -4.72201
H         -0.55727       -6.70283       -5.60065
H         -1.65239       -5.42851       -6.26809
H         -3.86371       -5.73059       -1.60476
H         -5.30990       -6.79547       -1.76796
H         -3.69319       -7.43202       -2.20748
H          3.04469       -5.95217       -3.54645
C          3.46943       -5.38371       -5.58342
C          2.93607       -5.04363       -4.17585
C          4.90701       -5.90371       -5.53951
H          2.81418       -6.15425       -6.04432
H          3.46724       -4.49203       -6.24039
H          5.56429       -5.15304       -5.04963
H          4.94288       -6.85008       -4.95777
C          5.42649       -6.16045       -6.95501
H          1.84286       -4.86390       -4.16249
H          4.78933       -6.90766       -7.47495
H          5.42397       -5.21603       -7.54217
H          6.46670       -6.54441       -6.91209
C          4.15099        0.80866        0.92398
C          5.48973        0.86737        0.59433
C          5.65433        0.08203       -0.51489
C          4.41916       -0.46362       -0.79099
N          3.47217        0.01508        0.06892
C          4.16170       -1.45614       -1.88511
N          5.27392       -2.37853       -2.25944
C          5.69983       -3.33333       -1.14287
H          6.26719        1.41545        1.10776
H          3.69959        1.32264        1.75704
H          6.58013       -0.11522       -1.04027
H          3.26260       -2.03719       -1.59981
H          3.94258       -0.83574       -2.76441
C          4.56265       -4.31138       -0.75119
C          6.89445       -4.15626       -1.65242
C          6.17040       -2.69726        0.20379
H          4.20183       -4.90275       -1.61016
H          4.92072       -5.03894        0.01284
H          3.70908       -3.77506       -0.28890
H          7.72030       -3.47841       -1.95796
H          7.28885       -4.82297       -0.84958
H          6.60491       -4.79332       -2.51101
H          7.05064       -2.03536        0.09112
H          5.34927       -2.19460        0.75432
H          6.49155       -3.49333        0.91497
