81
speciation349.ct
Na         1.17404        0.03272        0.23406
Mg        -2.98975        0.55316       -3.12982
C         -1.13132        1.88625        1.16571
C          0.62399        3.33569        0.64735
O          0.19682        1.97226        0.66937
C         -2.16031        2.47326        0.18778
C          2.05507        3.49047        0.18433
H         -1.36434        0.81272        1.30711
H         -1.23404        2.35350        2.17521
H          0.03219        3.91802       -0.08945
H          0.54760        3.80177        1.65867
H          2.16877        3.06519       -0.83045
H          2.30896        4.57342        0.14614
H          2.74361        3.00957        0.89393
H         -2.00570        2.04731       -0.82534
H         -3.18715        2.24079        0.53326
H         -2.08761        3.58102        0.13121
H         -5.35528        1.52630       -3.54827
C         -4.19796        2.64023       -5.01191
C         -4.34853        1.98638       -3.64089
C         -4.36115        1.63033       -6.15331
H         -4.97914        3.42604       -5.11085
H         -3.19785        3.11968       -5.07326
H         -3.58580        0.84446       -6.07783
H         -5.35959        1.14495       -6.09328
C         -4.22851        2.32066       -7.50937
H         -4.25096        2.76312       -2.85320
H         -5.02267        3.08836       -7.62971
H         -3.23466        2.80940       -7.59882
H         -4.33088        1.57350       -8.32434
C          0.47409       -3.08297        0.49705
C         -0.40254       -4.13613        0.28188
C         -1.46025       -3.62108       -0.41591
C         -1.18359       -2.28146       -0.62061
N          0.00337       -1.93281       -0.04662
C         -2.14331       -1.36790       -1.33836
N         -1.66428       -0.84493       -2.63127
C         -1.48972       -1.71462       -3.79571
H         -0.29592       -5.16523        0.60698
H          1.40144       -3.17557        1.04277
H         -2.33922       -4.16315       -0.74673
H         -3.12051       -1.86842       -1.48433
H         -2.33294       -0.51246       -0.65917
C         -2.81551       -2.40471       -4.15660
C         -1.06339       -0.77837       -4.93782
C         -0.35902       -2.73853       -3.57870
H         -3.61524       -1.64414       -4.29404
H         -2.71200       -2.99240       -5.09101
H         -3.12921       -3.10231       -3.35188
H         -0.07895       -0.31169       -4.71088
H         -0.98678       -1.31945       -5.90331
H         -1.79214        0.04797       -5.04602
H          0.55425       -2.22253       -3.20482
H         -0.64465       -3.52206       -2.85727
H         -0.10609       -3.25502       -4.52772
Mg         0.04174        0.05837       -2.33806
C          4.10129        0.66937        1.25648
C          5.46587        0.50270        1.14850
C          5.66760       -0.39857        0.13783
C          4.40851       -0.72103       -0.34733
N          3.44055       -0.06883        0.33742
C          4.20128       -1.65070       -1.50288
N          3.50242       -0.98674       -2.61604
C          4.21069        0.07309       -3.38094
H          6.23399        0.99073        1.73692
H          3.62175        1.31629        1.97261
H          6.62145       -0.75146       -0.22975
H          5.16135       -2.08325       -1.84892
H          3.58294       -2.49752       -1.15132
C          5.56394       -0.40614       -3.95610
C          3.28676        0.44447       -4.55022
C          4.42665        1.34840       -2.54242
H          5.42491       -1.29513       -4.60658
H          6.03109        0.40074       -4.56336
H          6.28462       -0.66018       -3.15161
H          2.29778        0.77273       -4.16345
H          3.72068        1.27174       -5.15212
H          3.12759       -0.43027       -5.21710
H          3.47341        1.64954       -2.06669
H          5.20219        1.22225       -1.76893
H          4.78758        2.18243       -3.17928
