110
speciation1937.ct
Na         1.13896       -0.45132        0.02644
Mg         1.02610        3.20079       -1.29588
C          0.97957       -0.33384        3.46690
C         -1.23333       -0.17861        2.67875
O          0.17049       -0.16552        2.29330
C          0.66639       -1.57870        4.36867
C         -1.65237        0.89369        3.72335
H          2.03910       -0.38750        3.18645
H          0.91828        0.57139        4.10756
H         -1.88948        0.00250        1.83677
H         -1.55182       -1.18725        3.01237
H         -1.39611        1.91694        3.37825
H         -2.75477        0.85277        3.88431
H         -1.20342        0.72841        4.72626
H          0.85544       -2.52057        3.82094
H          1.31487       -1.55479        5.27173
H         -0.36883       -1.58940        4.76915
H          0.63054        5.87560       -1.04848
C         -0.93823        5.23782        0.29018
C         -0.14719        5.08511       -1.00397
C         -0.00046        5.08689        1.47586
H         -1.41669        6.24132        0.31327
H         -1.74523        4.47849        0.33313
H          0.44148        4.07715        1.42797
H          0.79766        5.86130        1.41485
C         -0.72178        5.22682        2.80551
H         -0.84574        5.33201       -1.83053
H         -1.18599        6.23152        2.88974
H         -1.50344        4.44435        2.89682
H          0.01338        5.09854        3.62830
C          2.40795        4.32072       -3.73885
C          2.63739        3.78654       -4.99324
C          2.07156        2.52493       -4.99428
C          1.53154        2.35001       -3.74384
N          1.74213        3.43291       -2.98719
C          0.78468        1.11233       -3.23696
N          0.30372        1.24149       -1.79446
C         -1.18890        1.33294       -1.82941
H          3.14218        4.27779       -5.81852
H          2.72063        5.30161       -3.39157
H          2.05699        1.83082       -5.82566
H          1.30497        0.17267       -3.43161
H         -0.01972        0.97763       -3.97717
C         -1.87134        0.03241       -2.35799
C         -1.60095        1.53247       -0.39848
C         -1.70097        2.50989       -2.69563
H         -1.53758       -0.85949       -1.79704
H         -2.97670        0.12096       -2.26046
H         -1.69285       -0.15848       -3.43426
H         -1.09517        2.40934        0.04265
H         -2.70319        1.61483       -0.27715
H         -1.21724        0.64069        0.09686
H         -1.14843        3.40335       -2.44120
H         -1.55371        2.38452       -3.78746
H         -2.78574        2.68584       -2.54932
Na         4.51001        1.09709        4.28543
Mg         3.06066        0.96923        1.51323
C          0.58136       -3.54590        0.29184
C          0.78003       -2.93468       -1.99621
O          0.45598       -2.49434       -0.67249
C          1.93411       -4.27510        0.30345
C         -0.16776       -4.02423       -2.55938
H          0.43021       -3.09415        1.29129
H         -0.24847       -4.28414        0.19203
H          0.69237       -2.06788       -2.67850
H          1.82997       -3.27469       -2.06457
H         -1.20411       -3.64784       -2.66256
H          0.18643       -4.33694       -3.56972
H         -0.18345       -4.94988       -1.94382
H          2.75301       -3.53673        0.37086
H          1.98849       -4.96352        1.17380
H          2.07199       -4.90289       -0.60337
H          3.20838        2.33055       -0.17144
C          2.93021        3.33392        1.55995
C          2.76565        3.28393        0.04785
C          4.36791        2.94597        1.99657
H          2.66219        4.32616        1.96214
H          2.21681        2.59736        1.98587
H          4.37843        2.87464        3.09536
H          4.65640        1.96341        1.58514
C          5.46968        3.91096        1.58654
H          3.37609        4.09899       -0.39443
H          5.53854        4.01506        0.48533
H          5.29164        4.89678        2.05353
H          6.44071        3.50361        1.94882
C          7.14850        0.38942        3.07149
C          7.88925       -0.33508        2.15935
C          6.98018       -1.03588        1.39634
C          5.70135       -0.67683        1.83053
N          5.83106        0.15819        2.88988
C          4.38442       -1.20783        1.22817
N          3.66305       -0.31002        0.25731
C          4.44138       -0.04335       -1.03445
H          8.96871       -0.34894        2.07840
H          7.55929        1.04124        3.83116
H          7.23327       -1.70585        0.58731
H          3.71985       -1.44281        2.07825
H          4.58310       -2.18836        0.76921
C          4.90484       -1.35695       -1.70292
C          3.53141        0.57186       -2.07616
C          5.64800        0.93800       -0.90211
H          4.01927       -1.99003       -1.93775
H          5.41835       -1.12682       -2.67069
H          5.62214       -1.92272       -1.10383
H          3.23086        1.60692       -1.96075
H          4.00304        0.60505       -3.08528
H          2.66671       -0.08602       -2.04252
H          5.35103        1.93841       -0.55021
H          6.46491        0.59730       -0.27121
H          6.12023        1.10090       -1.89580
