110
speciation1956.ct
Na         0.83477        0.11166        0.13584
Mg        -3.26648       -5.37421        0.27686
C         -0.95308        2.32659       -0.66805
C          1.27156        3.12372       -0.31557
O          0.27742        2.16428        0.03257
C         -0.84275        2.44480       -2.19668
C          0.92505        4.53518        0.18295
H         -1.56383        1.42778       -0.44925
H         -1.52829        3.18092       -0.25362
H          2.21744        2.83349        0.18337
H          1.49783        3.13055       -1.40177
H          0.81077        4.53593        1.28771
H          1.73811        5.24196       -0.09033
H         -0.01091        4.91429       -0.27792
H         -0.25314        1.60062       -2.60877
H         -1.85870        2.43050       -2.64484
H         -0.37975        3.40911       -2.49503
H         -4.57389       -7.80424       -0.22273
C         -5.59611       -6.49633       -1.63346
C         -4.85891       -6.73456       -0.31011
C         -4.70877       -6.78299       -2.83925
H         -6.49347       -7.15619       -1.67706
H         -5.95013       -5.44326       -1.66371
H         -3.81028       -6.13197       -2.79477
H         -4.38831       -7.84760       -2.81693
C         -5.45392       -6.51776       -4.14724
H         -5.60498       -6.52583        0.48963
H         -6.34253       -7.17986       -4.23478
H         -5.78654       -5.45890       -4.19603
H         -4.77855       -6.71700       -5.00538
C         -0.81941       -5.89461       -1.03353
C          0.41106       -5.71185       -1.52555
C          0.92134       -4.58957       -0.83361
C         -0.00519       -4.13304        0.10566
N         -1.15134       -4.99224       -0.10032
C          0.40111       -2.63850        0.87220
N         -0.26964       -1.35658        1.59586
C          0.18820       -1.08279        2.97036
H          0.82304       -6.24797       -2.35296
H         -1.57390       -6.62499       -1.38847
H          1.88159       -4.15425       -1.09007
H          1.31482       -2.93544        1.41438
H          0.81703       -2.14628       -0.02963
C          1.70196       -0.76939        2.99349
C         -0.55874        0.16291        3.47195
C         -0.13191       -2.26618        3.90106
H          1.92661        0.08819        2.32286
H          2.03007       -0.50264        4.01947
H          2.32724       -1.62564        2.68302
H         -1.65533       -0.01690        3.48401
H         -0.23664        0.42736        4.50318
H         -0.35787        1.03322        2.80966
H         -1.22464       -2.46380        3.91744
H          0.38846       -3.18736        3.56852
H          0.19845       -2.04208        4.93828
Na        -5.04519       -3.15534       -2.48212
Mg        -2.22614       -1.12545        1.31512
C          3.75464       -0.78344       -0.34829
C          2.75555       -0.05507       -2.38718
O          2.54330       -0.57907       -1.07484
C          4.68983        0.43487       -0.26318
C          3.50072       -1.02690       -3.32886
H          3.47254       -1.05520        0.68513
H          4.30490       -1.67004       -0.73265
H          1.76818        0.13984       -2.84944
H          3.27201        0.92562       -2.35717
H          2.90350       -1.94700       -3.50129
H          3.67549       -0.53482       -4.31115
H          4.49940       -1.31688       -2.94006
H          4.13758        1.31462        0.12229
H          5.53558        0.21095        0.42076
H          5.14026        0.67682       -1.24971
H         -3.54718       -6.60203        2.90196
C         -1.38522       -6.08915        2.83085
C         -2.71038       -6.53689        2.17177
C         -0.90198       -6.95963        4.01448
H         -0.59122       -6.13558        2.06407
H         -1.52176       -5.04690        3.17299
H         -1.70888       -6.96766        4.78581
H         -0.71041       -8.00914        3.70025
C          0.34524       -6.37816        4.72707
H         -2.53286       -7.57297        1.79694
H          1.38563       -6.76601        4.85274
H          0.23987       -5.28837        4.90957
H          0.25086       -6.90349        5.66588
C         -4.67406        0.35891        1.17811
C         -6.03241        0.39268        0.92296
C         -6.41286       -0.88669        0.61426
C         -5.27453       -1.65704        0.68830
N         -4.18263       -0.89433        1.03438
C         -5.26535       -3.13645        0.43962
N         -4.24081       -3.53491       -0.54300
C         -2.98043       -2.79382       -0.52656
H         -6.68393        1.25577        0.95493
H         -4.06985        1.21475        1.44314
H         -7.40761       -1.23567        0.37341
H         -5.07657       -3.65884        1.41093
H         -6.25922       -3.51208        0.12435
C         -2.59195       -3.11989        1.03525
C         -2.16753       -3.40583       -1.72603
C         -2.95097       -1.28685       -1.14406
H         -2.77809       -4.12248        1.36776
H         -1.68542       -3.02738        1.52504
H         -3.19767       -2.68795        1.84612
H         -2.82159       -3.58857       -2.60300
H         -1.12535       -3.07659       -1.62062
H         -1.65012       -2.71215       -2.44256
H         -3.24695       -1.28946       -2.21517
H         -3.51322       -0.37282       -0.92657
H         -1.90524       -0.91197       -1.05111
