80
speciation978.ct
Na         1.25550        0.60500        0.18780
Mg         4.03284       -1.26860       -0.62988
H          6.07711       -2.09498        1.37876
C          6.16260       -3.91991        0.40391
C          5.32729       -2.68564        0.82952
C          7.17475       -3.63674       -0.72057
H          6.70106       -4.32793        1.28546
H          5.51014       -4.74930        0.07674
H          7.65447       -4.60137       -0.98897
H          6.66348       -3.26260       -1.62881
C          8.27798       -2.66524       -0.30975
H          4.60941       -3.04112        1.59675
H          7.87762       -1.63983       -0.16844
H          8.75306       -3.01402        0.63113
H          9.05465       -2.63326       -1.10402
C          6.04481       -0.68040       -2.86901
C          6.33989        0.51244       -3.49350
C          5.58646        1.48669       -2.86902
C          4.86849        0.84312       -1.88176
N          5.14068       -0.47274       -1.89497
C          3.90413        1.49201       -0.90628
N          3.40309        0.51987        0.10246
C          3.80763        0.77934        1.50466
H          7.01896        0.64750       -4.32389
H          6.45187       -1.63986       -3.14327
H          5.56737        2.54090       -3.10948
H          3.04850        1.91055       -1.47476
H          4.43423        2.34148       -0.43440
C          3.33526        2.15821        2.03972
C          3.09600       -0.28021        2.33897
C          5.32674        0.67891        1.66237
H          2.23681        2.27916        1.92857
H          3.58410        2.25082        3.12128
H          3.82724        3.00862        1.52947
H          3.27483       -1.30024        1.95819
H          3.36108       -0.22777        3.41589
H          2.02280       -0.06564        2.24033
H          5.69321       -0.15665        1.07502
H          5.84231        1.56154        1.24028
H          5.61380        0.57129        2.73177
Na         1.08514       -2.51322       -0.07233
Mg        -0.85035       -2.28132        0.00568
H         -2.01029       -2.85607        2.47197
C         -0.51655       -1.44842        3.15435
C         -0.97008       -2.56849        2.20757
C         -0.58322       -1.84854        4.64366
H          0.52431       -1.23766        2.91849
H         -1.13658       -0.54436        2.97833
H         -1.63293       -2.09073        4.90679
H          0.05026       -2.74537        4.82202
C         -0.09640       -0.73592        5.58487
H         -0.31988       -3.45374        2.38804
H          0.98155       -0.51358        5.42722
H         -0.68338        0.19590        5.44100
H         -0.22602       -1.06339        6.64041
C         -1.71918       -2.41503       -2.85334
C         -1.39135       -2.21015       -4.17947
C         -0.14170       -1.64349       -4.19099
C          0.25962       -1.54634       -2.87073
N         -0.71682       -2.00876       -2.03686
C          1.63846       -1.06946       -2.46974
N          2.38618       -2.06910       -1.67467
C          2.69154       -3.37526       -2.33026
H         -1.98227       -2.46930       -5.05061
H         -2.63803       -2.87368       -2.51291
H          0.43588       -1.37889       -5.06817
H          1.50215       -0.15584       -1.86754
H          2.23049       -0.77359       -3.36308
C          3.56527       -3.26870       -3.60349
C          3.47854       -4.13380       -1.30341
C          1.44156       -4.20302       -2.67819
H          4.54541       -2.80871       -3.39634
H          3.77521       -4.29361       -3.98715
H          3.06271       -2.70112       -4.40963
H          2.97886       -4.14481       -0.30835
H          3.73191       -5.16662       -1.61662
H          4.39573       -3.54782       -1.24828
H          0.72601       -4.23893       -1.83208
H          0.95815       -3.81781       -3.58871
H          1.72280       -5.23977       -2.95349
