95
speciation1838.ct
Na         4.51681        4.62635       -2.71582
Mg         2.17061        4.55704       -1.13708
C          2.44056        7.20026       -1.89613
C          1.29029        6.95275        0.14241
O          1.55469        6.39667       -1.13430
C          3.83625        7.36567       -1.27825
C          0.36394        6.03859        0.92866
H          2.56616        6.69565       -2.87693
H          1.98695        8.19201       -2.11367
H          2.20504        7.07400        0.75680
H          0.76856        7.92782        0.02008
H          0.88689        5.08929        1.16018
H          0.09186        6.51916        1.89248
H         -0.56429        5.83442        0.35391
H          4.26391        6.37676       -1.03475
H          4.50408        7.88103       -1.99906
H          3.81200        7.98680       -0.36015
H          5.23829       -2.47415       -4.98959
C          4.24265       -1.83776       -3.18938
C          5.17319       -1.57294       -4.35210
C          2.81951       -2.13726       -3.68024
H          4.61963       -2.69186       -2.58466
H          4.25798       -0.93741       -2.54897
H          2.15808       -2.24714       -2.79614
H          2.45164       -1.28518       -4.28666
C          2.72873       -3.42904       -4.50287
H          6.19844       -1.40834       -3.96446
H          3.32569       -3.37212       -5.43565
H          3.08126       -4.29214       -3.89861
H          1.67654       -3.60593       -4.80330
C          6.52875        4.52971       -0.38853
C          6.82379        3.99765        0.84825
C          5.77424        3.17292        1.17866
C          4.87728        3.23225        0.12658
N          5.33910        4.06767       -0.82889
C          3.58977        2.44871        0.08942
N          2.80240        2.67000       -1.13993
C          1.52419        1.91730       -1.22035
H          7.71211        4.18619        1.43918
H          7.15421        5.21559       -0.94123
H          5.67851        2.58717        2.08319
H          3.86749        1.37842        0.17448
H          3.00726        2.75549        0.97957
C          0.54622        2.31166       -0.09177
C          0.86965        2.28856       -2.56118
C          1.75149        0.39968       -1.17931
H          0.33075        3.39416       -0.13742
H         -0.41853        1.77131       -0.20187
H          0.94015        2.05843        0.91367
H          1.52741        2.00821       -3.41066
H         -0.10630        1.76923       -2.68276
H          0.68460        3.38426       -2.60827
H          2.51133        0.13434       -1.92724
H          2.08475        0.06236       -0.17524
H          0.81389       -0.14777       -1.41782
Na         4.11240        2.27842       -3.07577
Mg         4.63344        0.04103       -5.60388
H          1.85751        0.40198       -5.85950
C          2.07584       -0.65364       -7.75929
C          2.61979        0.27924       -6.65398
C          0.76305       -0.08576       -8.35955
H          2.82900       -0.72278       -8.57749
H          1.90082       -1.66842       -7.34829
H         -0.00005        0.00919       -7.55800
H          0.94726        0.92599       -8.78756
C          0.18209       -0.96034       -9.47379
H          2.69901        1.25244       -7.17037
H          0.88887       -1.03888      -10.32653
H         -0.05055       -1.97551       -9.09091
H         -0.76228       -0.50555       -9.85006
C          6.34075       -1.03700       -7.78854
C          7.10837       -0.30692       -8.67263
C          6.90499        1.03774       -8.37124
C          6.00322        1.04924       -7.31740
N          5.71360       -0.18335       -6.96684
C          5.42385        2.22840       -6.47904
N          5.42240        1.88683       -5.01160
C          6.82739        2.01493       -4.43961
H          7.75665       -0.72530       -9.43587
H          6.26115       -2.11623       -7.72394
H          7.37315        1.87946       -8.86059
H          5.86595        3.20485       -6.74230
H          4.38020        2.35071       -6.77047
C          7.36760        3.46712       -4.57544
C          6.80217        1.68685       -2.93886
C          7.88330        1.06433       -5.06573
H          6.67185        4.19807       -4.11415
H          8.36102        3.56750       -4.08633
H          7.54636        3.76203       -5.62925
H          6.44804        0.65679       -2.75011
H          7.81988        1.79586       -2.49826
H          6.15956        2.39634       -2.40385
H          7.56162        0.00826       -5.01663
H          8.14455        1.33428       -6.10256
H          8.85012        1.14036       -4.52098
