83
speciation506.ct
Na        -2.19154        0.57347       -4.91483
Mg         2.41759        1.33137       -1.89396
C         -3.71904        0.95524       -7.59810
C         -3.21792        3.05964       -6.68550
O         -3.55979        1.71070       -6.40379
C         -2.44092        0.77607       -8.43031
C         -3.07135        3.86790       -5.40387
H         -4.06039       -0.05784       -7.29926
H         -4.53239        1.37986       -8.22619
H         -2.25238        3.14668       -7.22483
H         -4.03182        3.53118       -7.28043
H         -2.19642        3.51313       -4.81930
H         -2.90545        4.93619       -5.66762
H         -3.98948        3.79389       -4.78604
H         -1.65042        0.30509       -7.82035
H         -2.64644        0.10431       -9.28890
H         -2.08008        1.73494       -8.85537
C          3.16043       -1.91006       -2.24043
C          2.72256       -3.05784       -2.90379
C          1.70447       -2.66762       -3.72199
C          1.55790       -1.31426       -3.51461
N          2.46035       -0.80566       -2.63419
C          0.48428       -0.52863       -4.13095
N         -0.79380       -0.58827       -3.39378
C         -0.77919       -0.11952       -1.90420
H          3.06708       -4.08261       -2.79111
H          3.92190       -1.92645       -1.47486
H          1.10563       -3.29746       -4.37647
H          0.32134       -0.88465       -5.17036
H          0.87850        0.46758       -4.22994
C         -0.35927        1.34516       -1.73113
C         -2.17911       -0.19340       -1.25898
C          0.10560       -0.95982       -0.91444
H         -1.07037        2.03814       -2.22474
H         -0.29399        1.64520       -0.66243
H          0.64353        1.46988       -2.10906
H         -2.54751       -1.23452       -1.19229
H         -2.11705        0.18217       -0.20123
H         -2.90869        0.46736       -1.76145
H         -0.05342       -2.05198       -1.00544
H          1.16179       -0.70165       -0.88263
H         -0.09917       -0.68013        0.14364
Na         2.29011        4.59853       -5.14059
C          1.83546        2.85884        1.08189
C          3.16800        0.90374        1.10891
O          2.24526        1.66762        0.33846
C          2.94734        3.76184        1.71899
C          2.57984        0.35771        2.42976
H          1.23010        3.50409        0.42838
H          1.13167        2.58740        1.90101
H          3.46867        0.03459        0.49912
H          4.10133        1.47430        1.31218
H          1.66150       -0.23051        2.23042
H          3.32647       -0.29558        2.93046
H          2.33669        1.16391        3.15707
H          3.68037        4.13398        0.98584
H          2.49182        4.66498        2.18861
H          3.50795        3.25997        2.53750
C          1.47394        3.56632       -7.77594
C          0.75044        2.40782       -7.95568
C          0.45366        1.92561       -6.67871
C          1.02153        2.84226       -5.78605
N          1.66058        3.76819       -6.45931
C          0.96831        3.03010       -4.24865
N          2.32929        3.01176       -3.51918
C          2.93935        4.14743       -2.74785
H          0.48464        1.98646       -8.91654
H          1.87132        4.22294       -8.53459
H         -0.11203        1.03900       -6.45637
H          0.42598        3.97545       -4.05393
H          0.23228        2.31968       -3.90806
C          1.86535        5.06639       -2.12123
C          3.81784        3.54968       -1.68816
C          3.95087        4.99983       -3.57476
H          1.14804        4.49971       -1.49071
H          2.34027        5.84692       -1.47652
H          1.27048        5.61262       -2.88258
H          4.56577        2.84987       -2.10271
H          4.34880        4.33651       -1.10176
H          3.21528        3.01528       -1.00451
H          4.64048        4.32058       -4.11069
H          3.53598        5.76589       -4.25234
H          4.54169        5.65080       -2.89111
