80
speciation869.ct
Na         1.07068        0.06711        0.02238
Mg        -4.63452       -0.21333        3.69781
H         -6.98559        1.07726        3.97186
C         -5.85534        2.15493        5.48002
C         -6.19034        0.86060        4.71320
C         -5.35784        3.26596        4.54642
H         -6.77618        2.51062        5.99511
H         -5.08915        1.94174        6.25606
H         -4.43257        2.93781        4.03452
H         -6.13292        3.48664        3.78110
C         -5.06388        4.55885        5.31760
H         -6.59263        0.12614        5.44403
H         -5.98538        4.94425        5.80514
H         -4.28857        4.38585        6.09376
H         -4.69129        5.33547        4.61560
C         -2.27405        1.16177        4.49768
C         -0.96130        1.46891        4.24047
C         -0.65693        0.88397        3.03103
C         -1.80611        0.27683        2.56335
N         -2.79544        0.42654        3.49273
C         -1.93619       -0.50243        1.25473
N         -1.29932        0.06711        0.02238
C         -1.72797        1.42411       -0.42865
H         -0.29731        2.04531        4.87609
H         -2.82538        1.44343        5.38834
H          0.27557        0.91656        2.53160
H         -3.00756       -0.71658        1.07053
H         -1.44818       -1.48001        1.42951
C         -1.32742        2.56517        0.54205
C         -0.99727        1.70878       -1.75260
C         -3.24988        1.48194       -0.65504
H         -0.23799        2.54189        0.76140
H         -1.55973        3.55630        0.09468
H         -1.90709        2.54571        1.48203
H         -1.24475        0.94635       -2.51854
H         -1.27178        2.71096       -2.14966
H          0.10398        1.70093       -1.59140
H         -3.57631        0.66596       -1.33167
H         -3.79197        1.38625        0.31034
H         -3.53978        2.45706       -1.10334
Na        -1.87771       -1.29415       -1.52075
Mg         6.12113       -2.47942       -2.45287
H         -5.32117       -1.68229        1.60699
C         -6.14977       -2.96700        3.12787
C         -5.06454       -2.00722        2.63673
C         -5.83257       -3.52947        4.51693
H         -7.12267       -2.43291        3.14585
H         -6.22328       -3.81440        2.40803
H         -4.86639       -4.08030        4.48672
H         -5.74890       -2.69600        5.24609
C         -6.92695       -4.49127        4.98157
H         -4.09786       -2.55537        2.58663
H         -7.90310       -3.96474        5.04374
H         -7.02117       -5.34626        4.27733
H         -6.67459       -4.89016        5.98684
C          3.34508       -3.23793       -3.03676
C          2.03808       -2.81912       -2.91191
C          2.07241       -1.60414       -2.25997
C          3.40573       -1.33304       -2.01087
N          4.17707       -2.33232       -2.48825
C          3.95047       -0.09493       -1.35492
N          3.44068        0.06711        0.02238
C          3.93431        1.27132        0.73955
H          1.15672       -3.33935       -3.26711
H          3.67251       -4.15203       -3.51518
H          1.21957       -0.99085       -2.01311
H          3.64016        0.75873       -1.98840
H          5.05597       -0.17139       -1.35214
C          3.58636        2.57471       -0.01649
C          3.22797        1.31688        2.09492
C          5.45170        1.19464        1.00273
H          2.49481        2.62233       -0.22456
H          3.86243        3.46316        0.59237
H          4.13776        2.65658       -0.97449
H          3.40596        0.38511        2.67411
H          3.56075        2.18714        2.70121
H          2.15466        1.43315        1.91116
H          5.69892        0.27304        1.57228
H          6.03605        1.20415        0.06221
H          5.78244        2.07264        1.60040
