110
speciation2191.ct
Na         1.22586        1.63984        0.16960
Mg         3.50447       -0.52249       -1.70232
C          0.04780        3.32909        2.55617
C          2.41816        3.55115        2.52209
O          1.28561        2.80241        2.08579
C         -0.21712        4.77239        2.12905
C          2.62962        3.56673        4.04924
H         -0.76009        2.69373        2.14622
H         -0.05768        3.21087        3.65902
H          3.32694        3.09319        2.10328
H          2.38812        4.57905        2.12399
H          2.82854        2.54533        4.43707
H          3.50711        4.20748        4.28508
H          1.76949        4.00294        4.59647
H         -0.08281        4.85944        1.03243
H         -1.25221        5.06244        2.40398
H          0.46600        5.47465        2.65208
H          5.51717        0.59913       -3.48463
C          6.59015        0.93189       -1.66622
C          5.28016        0.88049       -2.43498
C          7.21866       -0.44973       -1.66092
H          7.29279        1.65944       -2.13793
H          6.40443        1.29590       -0.63587
H          6.49491       -1.17520       -1.23314
H          7.45910       -0.75274       -2.70556
C          8.48826       -0.44530       -0.82754
H          5.00628        1.94440       -2.52970
H          9.23722        0.24262       -1.27526
H          8.25570       -0.11118        0.20632
H          8.90650       -1.47090       -0.79238
C         -1.82883        0.78896        0.28848
C         -2.45857       -0.43344        0.18084
C         -1.46266       -1.38557        0.10179
C         -0.26251       -0.69883        0.16232
N         -0.49645        0.61788        0.26294
C          1.10947       -1.32577        0.03330
N          2.27112       -0.37613        0.06161
C          3.12039       -0.54146        1.26124
H         -3.52625       -0.60511        0.13111
H         -2.31706        1.74544        0.32247
H         -1.60025       -2.45252       -0.02169
H          1.07678       -1.78244       -0.93546
H          1.18204       -2.15191        0.76064
C          3.74474       -1.95697        1.40126
C          4.25744        0.44648        1.07331
C          2.32371       -0.24373        2.54335
H          4.29901       -2.24793        0.48575
H          4.44735       -1.97108        2.26368
H          2.99918       -2.74699        1.62210
H          3.86528        1.45390        0.85067
H          4.93937        0.47461        1.94750
H          4.82152        0.11152        0.18820
H          1.78552        0.68881        2.44112
H          1.55142       -1.01614        2.73999
H          2.98906       -0.17761        3.42883
Na         0.50544        6.24191       -1.33534
Mg        -0.73651        3.59848       -2.03120
C          1.84722       -2.31800       -3.37088
C          4.20494       -2.45530       -3.69706
O          3.11786       -1.65584       -3.29442
C          1.74274       -3.59588       -2.54417
C          4.11343       -2.87175       -5.16891
H          1.06761       -1.63182       -3.00280
H          1.50145       -2.46041       -4.41780
H          5.12245       -1.84247       -3.59439
H          4.31663       -3.33098       -3.02742
H          4.08843       -1.97373       -5.82301
H          4.99557       -3.49026       -5.42574
H          3.21165       -3.48676       -5.36434
H          2.25065       -3.45712       -1.56786
H          0.66793       -3.82408       -2.36923
H          2.21269       -4.44149       -3.07686
H         -2.51217        5.69025       -2.27934
C         -3.82604        4.17141       -1.45135
C         -2.65381        4.59305       -2.35010
C         -3.52639        4.46782        0.01805
H         -4.74699        4.71972       -1.75549
H         -4.01115        3.08313       -1.58786
H         -2.59733        3.94352        0.31061
H         -3.37097        5.55873        0.15668
C         -4.66720        4.00844        0.92717
H         -2.94909        4.35823       -3.39840
H         -5.60207        4.56031        0.69110
H         -4.84933        2.91858        0.80850
H         -4.39581        4.20677        1.98562
C          3.30746        6.17992        0.09939
C          4.44695        5.41358        0.23688
C          4.23527        4.27302       -0.49833
C          2.96652        4.39864       -1.05979
N          2.40485        5.55710       -0.68768
C          2.40076        3.46510       -2.08689
N          1.11059        2.74136       -1.88237
C          0.88203        1.81629       -3.06857
H          5.34719        5.66981        0.78455
H          3.15792        7.15705        0.53387
H          4.95240        3.47379       -0.64207
H          3.18129        2.72443       -2.14267
H          2.38009        4.05776       -3.01603
C          1.97325        0.78645       -3.19255
C         -0.43358        1.03445       -2.90803
C          0.81721        2.52894       -4.44278
H          1.94055        0.23890       -2.25121
H          1.76139        0.14383       -4.06814
H          2.97574        1.16392       -3.41612
H         -1.30748        1.69906       -2.77953
H         -0.61398        0.36768       -3.78227
H         -0.37135        0.34219       -2.07307
H         -0.01933        3.24514       -4.49024
H          1.77331        3.01137       -4.72552
H          0.66046        1.76650       -5.24655
