110
speciation1926.ct
Na         0.41021        5.38253        4.57529
Mg        -4.15356        0.65431        0.56759
C          2.66245        5.94299        6.93315
C          3.46602        6.79962        4.93504
O          2.41912        6.03384        5.52482
C          2.47294        7.26765        7.70157
C          3.25584        6.95727        3.44814
H          1.98450        5.19704        7.35044
H          3.67089        5.52060        7.16003
H          3.51504        7.83147        5.34755
H          4.44788        6.28941        5.08369
H          2.32973        7.53584        3.27026
H          4.12331        7.51815        3.02987
H          3.19958        5.95981        2.97446
H          1.51894        7.75325        7.42271
H          2.47748        7.07903        8.79805
H          3.30432        7.97952        7.50824
H         -6.48358       -1.13767       -0.07206
C         -6.88277       -1.08576        2.04550
C         -5.86997       -1.12030        0.85179
C         -7.91172       -2.22079        2.19483
H         -6.39253       -1.12749        3.02423
H         -7.41903       -0.11977        1.99498
H         -8.47708       -1.98988        3.12837
H         -8.63056       -2.22980        1.35284
C         -7.30899       -3.61812        2.38873
H         -5.31146       -2.08112        0.88851
H         -6.85454       -3.98646        1.44823
H         -6.54647       -3.62803        3.19897
H         -8.11961       -4.32148        2.68449
C         -0.52768        5.37081        1.64057
C         -1.15441        5.04656        0.47055
C         -1.94725        3.96619        0.74221
C         -1.76587        3.60117        2.11072
N         -0.87829        4.51764        2.65317
C         -2.37420        2.26373        2.83553
N         -2.64209        0.91079        2.09537
C         -2.67695       -0.42674        2.83962
H         -1.01166        5.52078       -0.51187
H          0.18910        6.18202        1.71223
H         -2.47705        3.46541       -0.03236
H         -1.66249        2.08306        3.65775
H         -3.28937        2.57276        3.37374
C         -4.05559       -0.59594        3.39104
C         -2.44309       -1.59862        1.80808
C         -1.71520       -0.75118        4.01708
H         -4.67574       -0.13150        2.63155
H         -4.29191       -1.67331        3.58603
H         -4.23842       -0.01590        4.31048
H         -1.36581       -1.68531        1.53526
H         -2.69422       -2.60137        2.21839
H         -3.04401       -1.47771        0.88194
H         -0.64486       -0.67599        3.76244
H         -1.95788       -0.18698        4.93768
H         -1.87685       -1.82523        4.30644
Na        -1.49826        0.11009        0.44817
Mg         1.88220        0.11411       -1.73388
C         -1.69961        7.29663        5.04681
C         -1.27735        6.18450        7.07730
O         -1.15675        6.14500        5.66526
C         -0.89675        8.57697        5.30006
C         -0.98381        4.81718        7.68109
H         -1.70222        7.10496        3.95417
H         -2.76694        7.43079        5.32832
H         -0.60383        6.93948        7.53230
H         -2.33006        6.40990        7.35722
H          0.05821        4.51814        7.52034
H         -1.16640        4.84731        8.77691
H         -1.62442        4.04150        7.21914
H          0.16523        8.43684        5.00920
H         -1.32825        9.40062        4.69083
H         -0.95323        8.88385        6.36482
H         -4.42371        3.25270       -0.18149
C         -6.13279        3.41049        1.00432
C         -5.19014        2.55755        0.14573
C         -5.51701        3.85313        2.33214
H         -6.39406        4.32122        0.41548
H         -7.05843        2.83770        1.20614
H         -5.33543        2.94906        2.94175
H         -4.56665        4.40747        2.16110
C         -6.46599        4.76123        3.11149
H         -5.74096        2.29929       -0.77989
H         -6.66042        5.69851        2.54694
H         -7.42767        4.23819        3.29721
H         -6.01144        5.02680        4.09010
C         -4.18020       -0.31401       -2.03804
C         -3.73470       -0.62875       -3.29888
C         -2.41044       -0.29659       -3.32787
C         -2.08217        0.22109       -2.07509
N         -3.19905        0.18557       -1.25362
C         -0.66176        0.81751       -1.83330
N          0.17885        0.18168       -0.77405
C          0.89736        1.11422        0.19856
H         -4.33129       -1.04282       -4.10481
H         -5.19970       -0.44044       -1.72471
H         -1.76948       -0.39401       -4.20068
H         -0.09317        0.69511       -2.78575
H         -0.78458        1.90331       -1.69206
C         -0.04207        1.68770        1.16439
C          1.86892        0.35855        1.14521
C          1.57834        2.34887       -0.45852
H         -0.35086        0.94383        1.92152
H          0.39570        2.51937        1.74347
H         -0.87009        1.99380        0.52929
H          2.82855        0.09293        0.68940
H          2.10810        0.99278        2.04575
H          1.35819       -0.53919        1.56876
H          2.18467        2.88368        0.31230
H          0.83094        3.10581       -0.79622
H          2.23722        2.09514       -1.30079
