68
speciation6.ct
Na         1.24594        0.03220        0.26877
Mg         4.11679       -3.58866       -1.74163
C         -0.76808        1.47479       -0.90982
C         -0.41444        2.61434        1.11218
O         -0.31814        1.37235        0.42667
C          0.09893        2.38993       -1.78150
C          0.04942        2.48387        2.55457
H         -0.69292        0.45338       -1.33985
H         -1.84611        1.74210       -0.95978
H          0.19918        3.41152        0.64576
H         -1.48383        2.92808        1.14808
H          1.13334        2.25574        2.58646
H         -0.12315        3.44971        3.08043
H         -0.51772        1.68802        3.07951
H          1.17154        2.12343       -1.66560
H         -0.19171        2.27318       -2.84552
H         -0.04895        3.45643       -1.51579
C         -1.21283       -1.94905        0.62622
C         -1.79155       -3.17014        0.32678
C         -0.90918       -3.83191       -0.48973
C          0.17072       -2.99244       -0.64278
N         -0.00546       -1.82673        0.03040
C          1.39814       -3.35939       -1.40213
N          2.59422       -3.30022       -0.54928
C          2.75598       -4.22945        0.59168
H         -2.74921       -3.54159        0.66647
H         -1.65440       -1.19083        1.25149
H         -1.03074       -4.82540       -0.90423
H          1.30533       -4.36005       -1.87259
H          1.51606       -2.62582       -2.22786
C          2.68303       -5.69643        0.13225
C          4.14899       -3.95058        1.16877
C          1.73340       -3.97018        1.72051
H          3.44189       -5.89327       -0.65512
H          2.87201       -6.37980        0.98777
H          1.67897       -5.93893       -0.27412
H          4.21952       -2.88909        1.48570
H          4.35295       -4.59480        2.05027
H          4.93531       -4.13082        0.40521
H          1.73010       -2.89505        2.00483
H          0.71264       -4.28200        1.44824
H          1.98462       -4.57004        2.61981
Na         3.91397        3.77569        3.55526
C          3.94728       -0.57200       -0.99470
C          5.29910       -0.37115       -1.13091
C          5.61722        0.68156       -0.31513
C          4.43963        1.07343        0.29388
N          3.41008        0.28876       -0.11186
C          4.36109        2.22390        1.24755
N          3.82620        1.87496        2.56822
C          4.58923        0.96257        3.45275
H          5.97321       -0.93171       -1.76303
H          3.38642       -1.30895       -1.52736
H          6.59890        1.11650       -0.18066
H          5.35138        2.71494        1.35381
H          3.68421        2.97963        0.79765
C          6.03401        1.45342        3.68817
C          3.84284        0.94958        4.79606
C          4.61286       -0.48334        2.91954
H          6.03994        2.48331        4.10384
H          6.55592        0.78499        4.40763
H          6.62230        1.44479        2.74696
H          2.79270        0.61587        4.64373
H          4.32975        0.26161        5.51985
H          3.81851        1.96716        5.24091
H          3.58067       -0.83580        2.70918
H          5.22887       -0.58412        2.00898
H          5.07488       -1.16374        3.66611
