95
speciation1417.ct
Na         1.01445        1.76917        0.38208
Mg         3.38218        0.08335       -1.63630
C         -0.56899        1.97193        3.28457
C          1.59519        2.90670        3.61412
O          0.66949        2.34753        2.66115
C         -1.35660        3.17068        3.85481
C          1.71755        2.20356        5.00569
H         -1.21236        1.48168        2.53296
H         -0.42980        1.19233        4.06960
H          2.60513        2.87144        3.16964
H          1.34646        3.97554        3.78718
H          2.00024        1.13521        4.91405
H          2.49730        2.70962        5.61682
H          0.78826        2.26649        5.61485
H         -1.55244        3.91226        3.05581
H         -2.32909        2.83030        4.27539
H         -0.81495        3.67583        4.68329
H          3.91055        0.36096       -4.19085
C          5.23104       -1.21134       -3.51290
C          4.54792        0.13496       -3.30961
C          4.19091       -2.32272       -3.69405
H          5.87549       -1.15443       -4.41737
H          5.86815       -1.43068       -2.62991
H          3.54133       -2.37991       -2.79348
H          3.55465       -2.09824       -4.57860
C          4.86311       -3.67611       -3.90901
H          5.30978        0.93394       -3.19648
H          5.50524       -3.64890       -4.81547
H          5.48546       -3.94169       -3.02833
H          4.08879       -4.46012       -4.04765
C         -1.93038        0.49311       -0.03456
C         -2.33499       -0.80937       -0.26655
C         -1.18674       -1.58235       -0.33951
C         -0.13575       -0.70343       -0.17357
N         -0.58408        0.54275        0.03559
C          1.31162       -1.11264       -0.17958
N          2.24500        0.03300       -0.00400
C          3.32710       -0.22184        0.99435
H         -3.35393       -1.17163       -0.34668
H         -2.57969        1.34443        0.12181
H         -1.13856       -2.65301       -0.52345
H          1.55221       -1.60103       -1.15710
H          1.42482       -1.89090        0.59437
C          4.18927       -1.44763        0.59975
C          4.26102        0.99916        1.02421
C          2.76021       -0.43406        2.41537
H          4.65075       -1.30012       -0.39851
H          5.00668       -1.60053        1.33884
H          3.60093       -2.38648        0.57183
H          3.71128        1.91669        1.31498
H          5.08843        0.84220        1.75243
H          4.72581        1.15352        0.02876
H          2.08411        0.39034        2.67685
H          2.19602       -1.38039        2.52211
H          3.58086       -0.46906        3.16501
Na        -3.00559        2.97627       -3.42104
Mg        -0.30699        5.06310       -3.08745
H          1.37465        6.60578       -1.77777
C         -0.62087        7.21484       -1.14503
C          0.37102        6.78060       -2.22021
C         -0.78075        6.17723       -0.02244
H         -0.26565        8.16851       -0.69795
H         -1.60776        7.39814       -1.62152
H          0.19171        6.01973        0.49264
H         -1.50547        6.57943        0.71808
C         -1.30491        4.83252       -0.52357
H          0.44795        7.56535       -3.00181
H         -2.27018        4.96449       -1.05777
H         -0.56597        4.36222       -1.19783
H         -1.46023        4.14582        0.33453
C          3.08273        2.89497       -1.81565
C          3.37309        3.04367       -3.15576
C          2.21502        2.81051       -3.82924
C          1.22435        2.59420       -2.89778
N          1.77163        2.58686       -1.64003
C         -0.21672        2.28274       -3.25482
N         -0.96838        3.38770       -3.93342
C         -0.83239        3.75658       -5.34968
H          4.34665        3.22578       -3.61375
H          3.82324        2.93536       -1.03781
H          2.14499        2.74945       -4.88983
H         -0.30977        1.32961       -3.80559
H         -0.71882        2.12402       -2.27738
C         -0.94524        2.49240       -6.21082
C         -1.99747        4.72218       -5.61647
C          0.45439        4.58527       -5.65134
H         -1.85878        1.92412       -5.92137
H         -0.96466        2.71006       -7.29159
H         -0.07007        1.82673       -6.01074
H         -1.86251        5.63934       -4.98726
H         -2.01876        5.03678       -6.67784
H         -2.97377        4.27567       -5.35294
H          0.81393        5.13936       -4.76303
H          1.26108        4.00678       -6.12726
H          0.27711        5.35197       -6.43574
