80
speciation927.ct
Na         0.97977        0.06261        0.07531
Mg        -2.03886        1.81915       -0.70468
H         -3.85179        2.65590        1.20555
C         -3.94063        4.35116       -0.01289
C         -3.11765        3.22013        0.60355
C         -4.76263        5.14583        1.02732
H         -3.27623        5.04642       -0.54156
H         -4.65988        3.90415       -0.73730
H         -5.32944        5.93170        0.48377
H         -5.49942        4.48333        1.53418
C         -3.89569        5.82428        2.08887
H         -2.36571        3.64746        1.29246
H         -3.40409        5.07033        2.73839
H         -3.12269        6.45876        1.60665
H         -4.53183        6.46373        2.73639
C         -4.17716        1.25582       -2.76758
C         -4.57320        0.04908       -3.31563
C         -3.80651       -0.92998       -2.71501
C         -2.98121       -0.28560       -1.81588
N         -3.22054        1.03369       -1.85287
C         -1.94879       -0.91671       -0.90385
N         -1.39023        0.06261        0.07531
C         -1.71042       -0.23441        1.50130
H         -5.32489       -0.09567       -4.07728
H         -4.54865        2.23418       -3.03561
H         -3.85134       -1.99682       -2.90251
H         -1.13138       -1.34184       -1.51835
H         -2.44634       -1.76956       -0.40167
C         -1.13026       -1.59657        1.95807
C         -1.02413        0.84495        2.35806
C         -3.23070       -0.24988        1.76673
H         -0.03690       -1.63513        1.78574
H         -1.32008       -1.74903        3.04402
H         -1.59436       -2.45900        1.44050
H         -1.35070        1.85542        2.07344
H         -1.24016        0.69784        3.43837
H          0.07933        0.80053        2.22314
H         -3.71700        0.63957        1.36892
H         -3.73108       -1.11105        1.28305
H         -3.43909       -0.31281        2.85704
Na         4.02919        1.04687        1.84643
Mg         1.60403       -4.16584       -0.29637
H          0.29930        2.97335       -1.28042
C         -0.64299        3.47573       -3.17452
C         -0.46219        2.54719       -1.96470
C         -1.15817        4.86434       -2.80694
H          0.34407        3.58562       -3.68071
H         -1.34775        2.99694       -3.88852
H         -2.14752        4.75878       -2.33720
H         -0.45430        5.35776       -2.10058
C         -1.31206        5.74249       -4.05045
H         -0.07300        1.58826       -2.36983
H         -0.33315        5.88274       -4.55676
H         -2.02539        5.27693       -4.76464
H         -1.70731        6.73920       -3.76073
C          1.95920       -3.57520        2.52030
C          2.56098       -2.73191        3.42820
C          3.24772       -1.78476        2.69517
C          3.03591       -2.08940        1.36368
N          2.24494       -3.18322        1.26490
C          3.65808       -1.39024        0.17994
N          3.34977        0.06261        0.07531
C          4.02210        0.72376       -1.08335
H          2.51899       -2.81549        4.50485
H          1.35434       -4.44082        2.76240
H          3.85404       -0.98598        3.09580
H          3.29842       -1.92890       -0.71880
H          4.74571       -1.55184        0.29416
C          3.58240        0.11094       -2.43361
C          3.63205        2.20979       -1.08385
C          5.56629        0.65023       -0.96289
H          2.48065        0.17596       -2.55237
H          4.06042        0.65370       -3.27854
H          3.89483       -0.94805       -2.53741
H          3.94996        2.69978       -0.13996
H          4.12672        2.73990       -1.93025
H          2.53790        2.32495       -1.19583
H          5.90710        1.11107       -0.01104
H          5.95225       -0.38718       -1.01318
H          6.04914        1.19276       -1.80414
