66
speciation160.ct
Na         1.06137       -0.06692       -0.04190
Mg        -4.23592       -2.43142        2.28354
H         -6.71038       -3.31303        1.81982
C         -6.87564       -1.15135        1.66075
C         -6.32982       -2.40838        2.34776
C         -8.40684       -1.07875        1.70262
H         -6.45831       -0.26266        2.17970
H         -6.53374       -1.15067        0.60348
H         -8.84748       -1.96724        1.19940
H         -8.75015       -1.06039        2.76011
C         -8.90288        0.18419        0.99936
H         -6.64802       -2.43908        3.40338
H         -8.47007        1.08854        1.47835
H         -8.61032        0.16789       -0.07261
H        -10.00953        0.24425        1.06428
C         -2.09710        0.53497       -0.95293
C         -3.41979        0.44981       -0.56897
C         -3.43589       -0.23181        0.62697
C         -2.12537       -0.53472        0.91810
N         -1.30863       -0.06692       -0.04190
C         -1.64347       -1.21132        2.15370
N         -2.25593       -2.54156        2.29681
C         -1.83068       -3.29758        3.50040
H         -4.27407        0.86547       -1.08624
H         -1.72690        1.04347       -1.83286
H         -4.29364       -0.45358        1.23552
H         -0.53911       -1.28686        2.08912
H         -1.92375       -0.55945        3.00371
C         -2.16568       -2.53504        4.80264
C         -2.60710       -4.62502        3.51051
C         -0.32111       -3.62446        3.45579
H         -3.24904       -2.29060        4.84264
H         -1.91066       -3.15061        5.69244
H         -1.58287       -1.59635        4.89379
H         -2.38739       -5.21330        2.59413
H         -2.32630       -5.24029        4.39491
H         -3.70188       -4.43768        3.55224
H         -0.07319       -4.17427        2.52251
H          0.30359       -2.71095        3.50614
H         -0.03208       -4.25658        4.32315
Mg         6.20076        3.10774       -1.16985
C          4.22042       -1.15775       -0.06650
C          5.54985       -0.78670       -0.06241
C          5.57375        0.59070       -0.03339
C          4.25404        0.99801       -0.02134
N          3.43137       -0.06692       -0.04190
C          3.77164        2.40882        0.03520
N          4.24958        3.16297       -1.13322
C          3.84052        4.58582       -1.18502
H          6.40587       -1.44803       -0.07538
H          3.84819       -2.17325       -0.08427
H          6.45334        1.21983       -0.01667
H          2.66407        2.38747        0.06037
H          4.16356        2.84288        0.97500
C          4.35331        5.36552        0.04604
C          4.47490        5.20520       -2.44241
C          2.30704        4.72188       -1.29980
H          5.45644        5.26287        0.13579
H          4.10535        6.44461       -0.04453
H          3.88449        5.00879        0.98528
H          4.12834        4.67815       -3.35714
H          4.19983        6.27938       -2.53357
H          5.58303        5.13397       -2.39754
H          1.93591        4.16293       -2.18594
H          1.78961        4.33999       -0.39705
H          2.01792        5.78904       -1.40967
