95
speciation1804.ct
Na         2.66768       -1.81350       -1.04545
Mg         5.74125        3.53032       -1.43077
C          6.42823        2.64846       -3.58203
C          8.13396        1.68234       -2.32719
O          7.14468        2.70712       -2.38677
C          5.42689        1.51074       -3.52781
C          9.06640        1.84271       -1.13081
H          5.84174        3.60050       -3.62081
H          7.05939        2.65856       -4.49501
H          7.68660        0.66863       -2.28051
H          8.79363        1.75979       -3.22521
H          8.51724        1.67638       -0.18221
H          9.87740        1.08179       -1.20379
H          9.53856        2.84761       -1.12251
H          4.96348        1.55414       -2.52896
H          4.65697        1.61910       -4.31396
H          5.93092        0.53099       -3.63086
H          0.24030       -2.86354        1.77810
C          2.18814       -3.44524        2.47943
C          1.29620       -2.66104        1.50579
C          3.67704       -3.35398        2.12738
H          2.01435       -3.07666        3.51017
H          1.88331       -4.51832        2.43613
H          3.84680       -3.73554        1.09345
H          4.00672       -2.29178        2.17232
C          4.53000       -4.18206        3.09033
H          1.46114       -3.09876        0.49993
H          4.40564       -3.82021        4.13289
H          4.23324       -5.25603        3.04305
H          5.60378       -4.10531        2.81377
C          3.14921        4.50396       -0.91303
C          1.82058        4.40801       -0.59107
C          1.53647        3.07518       -0.51777
C          2.68923        2.39300       -0.85453
N          3.71329        3.28777       -1.04403
C          2.80555        0.87393       -1.01117
N          1.61294        0.02953       -0.72492
C          0.49843       -0.16885       -1.71920
H          1.12990        5.22274       -0.41770
H          3.68873        5.42937       -1.03843
H          0.57842        2.68344       -0.25896
H          3.61328        0.54184       -0.32329
H          3.14430        0.64251       -2.03438
C          1.01973       -0.57519       -3.11461
C         -0.40024       -1.30699       -1.19665
C         -0.41346        1.05663       -1.89610
H          1.61255       -1.51264       -3.07064
H          0.16343       -0.76005       -3.80359
H          1.63092        0.22553       -3.57515
H         -0.81336       -1.04908       -0.19567
H         -1.25744       -1.49058       -1.88197
H          0.16294       -2.25578       -1.11583
H         -0.90229        1.33031       -0.94062
H          0.13736        1.90737       -2.34208
H         -1.24313        0.82664       -2.59965
Na         5.63714        3.19318        0.62767
Mg         1.27991       -0.49419        1.17734
H          0.32572       -0.02651        3.63636
C          0.44403        2.03786        2.97228
C          0.98644        0.59907        3.00294
C         -0.96280        2.10496        2.37114
H          0.41047        2.43050        4.01897
H          1.13609        2.67756        2.38575
H         -0.92933        1.72122        1.33378
H         -1.65992        1.47211        2.95947
C         -1.50398        3.53767        2.35121
H          1.99237        0.62198        3.47625
H         -1.61322        3.92781        3.38639
H         -0.82602        4.20663        1.78044
H         -2.50409        3.55262        1.86464
C          8.05515        5.33563       -1.98656
C          8.78547        6.41593       -1.54048
C          8.18552        6.83681       -0.37845
C          7.10903        5.98883       -0.16790
N          7.03416        5.05650       -1.14031
C          6.14808        6.12212        0.96670
N          6.13479        4.90220        1.78659
C          5.23321        4.93458        2.96131
H          9.65456        6.85150       -2.02061
H          8.27899        4.79214       -2.89245
H          8.49290        7.67270        0.23345
H          6.45005        6.99682        1.57493
H          5.15229        6.31288        0.52502
C          3.76903        5.21919        2.55834
C          5.28743        3.54403        3.61721
C          5.70556        5.98061        3.99157
H          3.41692        4.46767        1.82268
H          3.10186        5.17049        3.44663
H          3.64927        6.23296        2.12619
H          6.32826        3.29844        3.92221
H          4.63627        3.50591        4.51686
H          4.93910        2.76263        2.90612
H          6.75834        5.78266        4.28833
H          5.63511        7.01306        3.59855
H          5.07112        5.94048        4.90435
