110
speciation2021.ct
Na         1.69505       -4.49134        1.62639
Mg        -1.94436        0.11592       -1.22784
C          3.47306       -7.20644        2.11423
C          4.23497       -4.97070        2.39648
O          3.12986       -5.84803        2.37801
C          3.74596       -7.56197        0.64480
C          4.65621       -4.58710        0.99860
H          4.33793       -7.52222        2.74039
H          2.61965       -7.83051        2.45095
H          3.82405       -4.03959        2.81350
H          5.06179       -5.24561        3.07786
H          3.79471       -4.86286        0.40240
H          4.85376       -3.49853        0.89386
H          5.52146       -5.16800        0.63552
H          4.68103       -7.11289        0.26720
H          3.89261       -8.66030        0.55949
H          2.89636       -7.26532       -0.00294
H          0.55508       -0.42542       -1.66569
C          0.96614        1.48348       -2.41163
C         -0.01403        0.33167       -2.21848
C          1.50975        2.04717       -1.09960
H          1.83109        1.13942       -3.02626
H          0.44027        2.28204       -2.97282
H          2.12928        2.93676       -1.33891
H          0.65711        2.35980       -0.49661
C          2.37213        1.07502       -0.28568
H         -0.25401       -0.03887       -3.23653
H          1.79043        0.19958        0.06939
H          3.23694        0.72460       -0.88774
H          2.75911        1.60078        0.61344
C          2.29137       -3.72513       -1.39492
C          1.94613       -3.13810       -2.55943
C          0.68441       -2.70480       -2.38500
C          0.25403       -3.07047       -1.12948
N          1.28759       -3.69235       -0.47731
C         -1.12106       -2.75679       -0.58575
N         -2.00033       -2.04551       -1.56911
C         -2.71360       -2.88370       -2.64339
H          2.56419       -3.01397       -3.43811
H          3.26840       -4.11824       -1.30335
H          0.17171       -2.16563       -3.13008
H         -1.60817       -3.66935       -0.19061
H         -0.98361       -2.08929        0.29237
C         -3.52793       -4.03367       -2.01862
C         -3.67088       -2.03930       -3.48585
C         -1.79252       -3.51920       -3.71819
H         -4.26714       -3.64329       -1.28927
H         -4.07898       -4.58639       -2.81423
H         -2.87064       -4.77730       -1.52742
H         -3.12449       -1.17973       -3.92287
H         -4.07815       -2.59737       -4.35512
H         -4.57427       -1.80027       -2.91935
H         -1.31851       -2.74735       -4.36355
H         -1.06750       -4.23728       -3.29408
H         -2.38668       -4.11067       -4.44778
Na        -2.93525       -0.50090       -0.43131
Mg        -3.79478        0.85643        3.23699
C          1.06289       -2.16340        3.31292
C          1.83780       -3.99121        4.64377
O          1.11564       -3.57754        3.47939
C          2.41337       -1.42412        3.34012
C          1.12268       -3.66711        5.95787
H          0.62123       -1.98145        2.31309
H          0.35658       -1.71279        4.04010
H          1.96424       -5.09309        4.61065
H          2.85933       -3.57362        4.68775
H          0.15361       -4.20275        6.01917
H          1.76240       -3.99184        6.80827
H          0.95827       -2.57618        6.07132
H          3.11242       -1.85046        2.59155
H          2.24842       -0.35570        3.09494
H          2.87695       -1.44675        4.34959
H         -5.77313        1.34579        4.82019
C         -4.90826       -0.41306        5.73165
C         -5.33229        0.37634        4.50023
C         -4.25839       -1.73525        5.32208
H         -4.18788        0.18523        6.33184
H         -5.81190       -0.60862        6.35007
H         -4.95692       -2.31704        4.68161
H         -3.33222       -1.52515        4.74340
C         -3.91103       -2.57469        6.54747
H         -6.09142       -0.19024        3.92475
H         -3.21817       -2.02016        7.21499
H         -4.83558       -2.82768        7.11031
H         -3.42234       -3.51822        6.22617
C         -1.01308        1.76687        3.15666
C         -0.15847        2.59942        2.46308
C         -0.85853        3.04797        1.36985
C         -2.08967        2.42929        1.41141
N         -2.19728        1.69232        2.52159
C         -3.18104        2.67986        0.41879
N         -3.42937        1.55822       -0.52481
C         -4.43824        1.88305       -1.56840
H          0.84702        2.88044        2.74280
H         -0.79705        1.28826        4.10107
H         -0.51802        3.75861        0.62730
H         -2.86405        3.56877       -0.15686
H         -4.10043        2.95036        0.97881
C         -4.05412        3.11692       -2.41918
C         -4.46287        0.70690       -2.48097
C         -5.86580        2.03769       -0.98753
H         -3.03682        2.98615       -2.84888
H         -4.77130        3.23746       -3.26081
H         -4.09109        4.05910       -1.84067
H         -4.74681       -0.14065       -1.83062
H         -5.19319        0.80829       -3.31200
H         -3.43959        0.59510       -2.88723
H         -6.19586        1.09878       -0.48748
H         -5.94633        2.86797       -0.26306
H         -6.58697        2.24221       -1.81132
