81
speciation787.ct
Na         1.33664       -0.69806        0.24528
Mg         3.70067        3.51023       -0.93300
C          1.95524        4.76873       -2.66136
C          3.68514        6.31155       -2.30459
O          3.07814        5.09985       -1.86853
C          2.35585        4.27189       -4.04995
C          4.84971        6.73250       -1.41857
H          1.42885        3.94218       -2.14389
H          1.21549        5.60149       -2.71302
H          4.08227        6.22810       -3.33735
H          2.93893        7.13967       -2.24988
H          5.67751        5.99983       -1.49899
H          5.21708        7.72651       -1.75885
H          4.54508        6.84038       -0.36051
H          3.12825        3.48046       -3.95412
H          1.46927        3.85702       -4.57073
H          2.75230        5.10001       -4.67117
H          5.35209        1.73212        3.68814
C          7.09295        1.44727        2.42810
C          5.64802        1.11611        2.81147
C          8.06130        1.11278        3.57676
H          7.40041        0.84859        1.55152
H          7.16830        2.51901        2.15904
H          7.80824        1.71320        4.47702
H          7.98346        0.03297        3.84230
C          9.50145        1.39648        3.16454
H          5.68124        0.07233        3.18830
H          9.77999        0.76452        2.29324
H          9.61406        2.46610        2.89142
H         10.18889        1.16263        4.00452
C          5.82895        2.41211       -2.63091
C          6.35087        1.28373       -3.24262
C          5.56922        0.22420       -2.84396
C          4.59959        0.74086       -2.00892
N          4.75575        2.08483       -1.87292
C          3.46277       -0.07832       -1.44383
N          3.42013       -0.25584        0.03188
C          4.05933       -1.46983        0.59156
H          7.19246        1.24271       -3.91882
H          6.20070        3.41540       -2.76536
H          5.67266       -0.80544       -3.17008
H          3.44143       -1.05419       -1.95832
H          2.53387        0.41996       -1.77619
C          5.57286       -1.39790        0.36432
C          3.70965       -1.50196        2.09227
C          3.51794       -2.80184        0.01650
H          5.94949       -0.43642        0.72219
H          6.10511       -2.22472        0.87849
H          5.81059       -1.46203       -0.71606
H          2.63733       -1.74129        2.24758
H          4.32131       -2.25091        2.64065
H          3.81025       -0.51739        2.55495
H          2.42428       -2.88731        0.19228
H          3.71667       -2.93926       -1.06137
H          4.00870       -3.65549        0.53538
Mg         3.91592        1.29637        1.30511
C          0.54998        0.63428        3.52417
C         -0.49901        1.51581        3.37762
C         -0.25334        2.27508        2.24463
C          0.91990        1.89064        1.73755
N          1.47699        0.83611        2.48836
C          1.58990        2.52885        0.55313
N          2.94932        3.01277        0.86948
C          3.05791        4.15797        1.83069
H         -1.34741        1.59996        4.04200
H          0.67177       -0.07553        4.32819
H         -0.86998        3.07311        1.86616
H          0.96748        3.33423        0.12079
H          1.67400        1.75503       -0.22677
C          2.48479        3.85600        3.23574
C          4.55376        4.46700        1.98879
C          2.35045        5.42035        1.30516
H          2.82806        2.87671        3.62801
H          2.78282        4.64539        3.95631
H          1.38099        3.90459        3.23445
H          5.00738        4.73315        1.01110
H          4.71744        5.30536        2.69840
H          5.08579        3.58953        2.38206
H          2.78369        5.74857        0.35711
H          1.26767        5.25036        1.14841
H          2.45378        6.25518        2.02814
