110
speciation2226.ct
Na         2.38073       -0.01848        1.66773
Mg         3.63649        0.59520       -1.65333
C          4.58425       -0.49225        3.73404
C          2.73812        0.40104        4.91491
O          3.33680        0.18573        3.63580
C          4.44533       -1.94931        4.23091
C          3.47365        1.45339        5.76602
H          5.06108       -0.46842        2.73361
H          5.33081        0.07408        4.31939
H          1.69056        0.73805        4.80410
H          2.63939       -0.54101        5.47559
H          3.32769        2.47121        5.35075
H          3.07646        1.42063        6.80184
H          4.56056        1.26657        5.85781
H          3.72345       -2.51482        3.62973
H          5.43295       -2.44886        4.20027
H          4.05592       -2.04945        5.25822
H          5.93431        0.38450       -3.02806
C          6.28794        1.70385       -1.33489
C          5.42945        1.20496       -2.47598
C          6.43807        0.66173       -0.21850
H          7.27863        2.02737       -1.71754
H          5.78426        2.59274       -0.91081
H          7.00322        1.14302        0.60608
H          5.43584        0.36982        0.16731
C          7.19681       -0.59655       -0.64076
H          5.24483        2.03392       -3.19618
H          6.62518       -1.18045       -1.39232
H          8.19172       -0.32928       -1.05553
H          7.34911       -1.23980        0.25225
C         -2.42903       -1.27289        0.18288
C         -3.18723       -0.20245        0.55641
C         -2.34615        0.89479        0.52911
C         -1.08111        0.46092        0.15485
N         -1.17122       -0.87017       -0.05622
C          0.11975        1.40974       -0.13884
N          1.64360        1.32990        0.21420
C          1.95391        2.58038        1.00403
H         -4.23769       -0.22571        0.79960
H         -2.75797       -2.30240        0.08652
H         -2.64892        1.90839        0.73360
H         -0.33703        2.29492        0.33373
H         -0.07785        1.81949       -1.12563
C          1.18732        2.54314        2.36216
C          3.44930        2.63301        1.30335
C          1.61057        3.92409        0.26187
H          1.39625        1.59758        2.87077
H          1.47648        3.38781        3.01877
H          0.08192        2.58990        2.29630
H          4.00675        2.73481        0.35938
H          3.67538        3.51645        1.94102
H          3.80064        1.73017        1.82283
H          2.19502        4.04791       -0.66783
H          0.55027        4.08444       -0.01591
H          1.84736        4.78726        0.91993
Na         0.19777       -1.92291       -0.60421
Mg        -0.16906       -1.39508       -3.76396
C          2.81773       -0.24828       -5.11695
C          3.91385       -1.94335       -3.90573
O          3.49819       -0.57147       -3.83641
C          1.83810       -1.32655       -5.73543
C          4.92867       -2.22054       -5.03264
H          2.23831        0.66439       -5.04397
H          3.53883        0.00641       -5.91019
H          4.38681       -2.24266       -2.95895
H          3.03964       -2.63274       -4.00456
H          5.85162       -1.64295       -4.84416
H          5.15501       -3.30602       -5.07193
H          4.55554       -1.95795       -6.04547
H          1.10869       -1.72067       -5.02527
H          1.22869       -0.92285       -6.59745
H          2.32439       -2.23582       -6.15311
H         -2.31345       -2.59944       -4.42307
C         -1.07399       -4.37987       -4.31920
C         -1.26143       -2.89380       -4.61377
C         -1.39881       -4.80112       -2.87943
H         -1.74360       -4.94788       -5.00270
H         -0.02567       -4.66141       -4.55504
H         -1.25290       -5.90230       -2.82504
H         -0.70439       -4.32093       -2.16117
C         -2.84151       -4.49444       -2.47224
H         -1.07214       -2.73627       -5.69680
H         -2.99356       -3.40046       -2.36482
H         -3.55445       -4.89391       -3.22511
H         -3.06032       -4.96918       -1.49262
C          0.52085        1.22318       -3.53159
C          1.29899        2.24162       -3.11173
C          2.12763        1.65992       -2.21555
C          1.80529        0.23460       -2.07590
N          0.89653        0.06691       -2.93498
C          2.42161       -1.06016       -1.32178
N          1.91438       -1.39968        0.01722
C          2.27582       -2.69429        0.63318
H          1.29335        3.27836       -3.42372
H         -0.24570        1.29960       -4.28852
H          2.89701        2.24553       -1.72942
H          3.52445       -1.13944       -1.28740
H          2.11878       -1.90510       -1.96685
C          3.71893       -2.63725        1.09044
C          1.33994       -2.88273        1.83737
C          2.14642       -3.91087       -0.30525
H          3.80591       -1.72000        1.65924
H          3.98112       -3.53505        1.69463
H          4.43736       -2.55492        0.25672
H          0.26972       -2.98083        1.52496
H          1.57850       -3.82854        2.40227
H          1.40252       -2.05016        2.56609
H          1.14593       -3.98265       -0.76289
H          2.91845       -3.87723       -1.10289
H          2.32615       -4.85133        0.26986
