110
speciation2451.ct
Na         3.24909       -2.20696       -0.80137
Mg         7.20658        2.02323        3.38291
C          3.99463       -4.58933       -2.67073
C          1.75637       -4.81049       -2.02544
O          3.04746       -4.36183       -1.63701
C          3.76038       -3.73814       -3.92838
C          0.74596       -4.60559       -0.90718
H          4.99232       -4.33677       -2.26830
H          4.05622       -5.66938       -2.93024
H          1.36418       -4.27329       -2.91412
H          1.79258       -5.90517       -2.21952
H          0.53454       -3.53522       -0.78064
H         -0.21756       -5.08533       -1.17897
H          1.11546       -5.03516        0.04664
H          3.66640       -2.66496       -3.66173
H          4.61605       -3.86325       -4.62407
H          2.85264       -4.06243       -4.47795
H          6.20598        4.48689        3.03114
C          7.12923        4.73606        4.94213
C          6.34845        3.88288        3.94957
C          6.45097        6.10513        5.11081
H          7.17703        4.19930        5.91000
H          8.16331        4.89486        4.56122
H          6.47799        6.65009        4.14017
H          5.38877        5.97129        5.40966
C          7.14991        6.94987        6.16909
H          5.33753        3.66195        4.34107
H          7.07400        6.45195        7.15867
H          8.21951        7.09549        5.90941
H          6.65870        7.94440        6.23287
C          3.21369        2.90268       -3.75374
C          2.47606        1.92184       -4.37466
C          2.57807        0.81488       -3.58571
C          3.37803        1.15118       -2.48563
N          3.76593        2.44461       -2.60360
C          3.80957        0.09768       -1.44838
N          3.45506       -0.00565        0.05227
C          1.91558        0.16507        0.27012
H          1.94537        1.98876       -5.32115
H          3.35623        3.89927       -4.15174
H          2.12842       -0.15048       -3.80351
H          4.86005       -0.09324       -1.62682
H          3.35697       -0.73882       -1.96958
C          1.15248       -1.08331       -0.22459
C          1.43943        0.30662        1.72584
C          1.28426        1.42150       -0.38704
H          1.50680       -1.96618        0.36061
H          0.05968       -1.02315       -0.02577
H          1.27308       -1.25861       -1.30928
H          1.90911        1.16089        2.22410
H          0.34245        0.51534        1.78697
H          1.41806       -0.64828        2.24541
H          1.75528        2.34814       -0.00109
H          1.24617        1.39944       -1.47482
H          0.19356        1.47776       -0.15083
Na         5.00416        3.74402       -1.48740
Mg         4.77972        0.12498        1.43869
C          3.58691        0.90865        4.08086
C          3.34321       -1.38694        3.48351
O          4.04207       -0.18099        3.26282
C          4.27469        0.86355        5.42332
C          4.11734       -2.30499        4.38078
H          3.88264        1.85546        3.58209
H          2.48620        0.96844        4.25490
H          2.33511       -1.25711        3.94357
H          3.23489       -1.86298        2.48512
H          4.03797       -1.97023        5.43058
H          3.66590       -3.31394        4.31397
H          5.17808       -2.33280        4.06887
H          5.31762        0.64744        5.19264
H          4.18475        1.82096        5.97827
H          3.85113        0.06618        6.06173
H          9.45871        0.63907        4.01601
C          9.01663        1.45346        5.96570
C          9.04829        1.57916        4.43685
C          8.07888        0.35423        6.47690
H         10.04017        1.25167        6.34841
H          8.67521        2.42166        6.38395
H          8.05874        0.38004        7.58655
H          7.07509        0.58532        6.13685
C          8.45469       -1.06098        6.03449
H          9.76677        2.37899        4.16073
H          8.43573       -1.16382        4.93099
H          9.46343       -1.32217        6.41522
H          7.71913       -1.78396        6.44899
C          5.73172       -2.22541       -0.46903
C          6.82839       -2.97416       -0.35102
C          7.51650       -2.49927        0.72991
C          6.77928       -1.44028        1.20012
N          5.65751       -1.33178        0.54583
C          7.09106       -0.38007        2.21812
N          6.60556        0.97654        1.77758
C          7.30740        1.67275        0.64447
H          7.10255       -3.78586       -1.04016
H          5.09113       -2.30393       -1.32684
H          8.46132       -2.85456        1.08738
H          8.15871       -0.41736        2.48774
H          6.51016       -0.63782        3.12348
C          6.78290        1.26697       -0.72445
C          7.02865        3.18846        0.73914
C          8.82583        1.47364        0.69371
H          5.72043        1.55955       -0.74887
H          7.27634        1.84106       -1.53940
H          6.95929        0.20179       -0.94732
H          7.52228        3.60757        1.62688
H          7.45654        3.73313       -0.13311
H          5.93460        3.40001        0.76026
H          9.21684        1.83637        1.66502
H          9.08830        0.40513        0.55977
H          9.31794        2.04903       -0.11985
