81
speciation776.ct
Na         0.16204        1.08239        0.04984
Mg        -5.92637        1.74733        2.51706
C         -8.09163        3.60066        2.59533
C         -6.31355        4.29738        4.01924
O         -6.88605        3.26582        3.24971
C         -7.91245        4.64087        1.48747
C         -5.01360        3.79348        4.62504
H         -8.45948        2.66796        2.11621
H         -8.87547        3.89978        3.32433
H         -6.06774        5.18764        3.40269
H         -6.99799        4.56642        4.85364
H         -4.28641        3.55929        3.81811
H         -4.57994        4.57360        5.28583
H         -5.20182        2.87631        5.22208
H         -7.11530        4.32021        0.78394
H         -8.86464        4.74828        0.92635
H         -7.65867        5.63406        1.90979
H         -0.10543       -3.72590       -0.43583
C         -1.06689       -3.31206       -2.31138
C         -0.86175       -3.01949       -0.82948
C          0.22484       -3.10694       -3.10147
H         -1.40084       -4.36801       -2.42602
H         -1.87158       -2.65877       -2.70663
H          0.59324       -2.06804       -2.97033
H          1.00327       -3.80759       -2.72768
C         -0.01156       -3.36409       -4.58617
H         -1.81067       -3.27467       -0.32857
H         -0.36642       -4.40477       -4.74761
H         -0.77263       -2.65606       -4.97943
H          0.93533       -3.21710       -5.14539
C         -5.67548       -0.94062        1.84788
C         -4.89596       -2.04189        1.59533
C         -3.63172       -1.56449        1.35673
C         -3.69796       -0.18657        1.43404
N         -4.94195        0.18969        1.76554
C         -2.55212        0.72812        1.26470
N         -1.82713        0.44960       -0.00178
C         -2.50808        0.67147       -1.29600
H         -5.20901       -3.07702        1.63016
H         -6.71569       -0.95876        2.13892
H         -2.75360       -2.15281        1.17722
H         -1.89094        0.55855        2.12101
H         -2.87391        1.78990        1.33484
C         -3.01497        2.12271       -1.41090
C         -1.46273        0.42537       -2.38594
C         -3.67994       -0.30778       -1.52869
H         -2.17607        2.83626       -1.27002
H         -3.46715        2.29334       -2.41160
H         -3.79522        2.33615       -0.65174
H         -1.04453       -0.58842       -2.27342
H         -1.91255        0.50722       -3.39730
H         -0.62022        1.14276       -2.30399
H         -3.35027       -1.35844       -1.38662
H         -4.54452       -0.10410       -0.87078
H         -4.07778       -0.20350       -2.55808
Mg        -0.34572       -0.99089       -0.23557
C          2.59226        1.76573       -3.47846
C          3.10552        0.60377       -4.01216
C          3.19669       -0.31567       -2.98220
C          2.75789        0.26364       -1.86016
N          2.34605        1.59283       -2.10177
C          2.84285       -0.37110       -0.49791
N          1.57767       -0.42402        0.27169
C          1.72459       -0.94359        1.66237
H          3.40716        0.45612       -5.04181
H          2.42186        2.68176       -4.02884
H          3.61369       -1.31079       -3.06034
H          3.57785        0.25989        0.03701
H          3.26424       -1.38934       -0.61274
C          2.74924       -0.13460        2.49131
C          0.37611       -0.79908        2.36162
C          2.09869       -2.43292        1.63864
H          2.47813        0.94320        2.49503
H          2.75392       -0.49422        3.54324
H          3.78446       -0.24729        2.11488
H         -0.42787       -1.32551        1.80650
H          0.40694       -1.22035        3.39086
H          0.14490        0.28391        2.44907
H          1.35280       -3.00076        1.05337
H          3.09764       -2.60271        1.19368
H          2.11832       -2.84686        2.66904
