81
speciation763.ct
Na         0.70764        1.57833       -2.03894
Mg         7.59716        2.65996       -1.09652
C          8.28756        4.78191       -2.80304
C          9.87167        4.16942       -1.15234
O          8.49167        4.36392       -1.44356
C          8.89375        3.90160       -3.91400
C         10.69681        5.47145       -1.13657
H          7.21650        4.76057       -2.98610
H          8.56192        5.84931       -2.95336
H          9.96684        3.67462       -0.15879
H         10.33605        3.47519       -1.87988
H         10.49164        6.11111       -0.25352
H         11.77440        5.21223       -1.10225
H         10.53244        6.06708       -2.05648
H          8.71445        2.83805       -3.66741
H          8.41834        4.13797       -4.89573
H          9.97964        4.08994       -4.04154
H          2.42780        2.71230       -1.09570
C          4.36963        2.88850       -1.97683
C          3.41443        2.18673       -1.01634
C          4.51542        4.41540       -1.77335
H          5.36841        2.45545       -1.93969
H          3.98526        2.67514       -2.99432
H          4.92672        4.73362       -0.78630
H          5.23160        4.75758       -2.53332
C          3.19476        5.10992       -2.05949
H          3.77094        2.33739        0.01737
H          2.70879        4.53476       -2.86118
H          2.52882        5.09366       -1.17351
H          3.32103        6.15045       -2.43053
C         -0.16175        1.98607       -5.03005
C         -0.04736        1.17109       -6.13839
C          0.57785        0.00816       -5.72088
C          0.81196        0.16547       -4.36709
N          0.35973        1.36388       -3.96629
C          1.47621       -0.82977       -3.43288
N          1.51529       -0.32505       -2.03203
C          0.74830       -1.06429       -1.00925
H         -0.38573        1.40477       -7.13874
H         -0.59822        2.97328       -4.99563
H          0.82285       -0.84971       -6.33382
H          2.52164       -0.99129       -3.78216
H          0.96078       -1.80475       -3.51996
C          1.21808       -2.52322       -0.86557
C          1.00099       -0.34108        0.32140
C         -0.76521       -1.03622       -1.31285
H          2.24845       -2.54590       -0.48056
H          0.59845       -3.06098       -0.11983
H          1.15588       -3.08833       -1.81827
H          0.64358        0.70882        0.26821
H          0.48402       -0.85048        1.16020
H          2.09292       -0.31524        0.53821
H         -1.12357        0.00965       -1.41681
H         -1.02096       -1.59157       -2.23863
H         -1.32566       -1.51162       -0.47737
Mg         3.36532       -0.00705       -1.57260
C          4.59375       -2.82409       -1.86273
C          5.80141       -3.45220       -2.08676
C          6.73696       -2.45445       -2.20088
C          6.05809       -1.25253       -2.03416
N          4.74340       -1.47144       -1.82262
C          6.71671        0.10518       -2.03824
N          6.60470        0.89216       -0.76433
C          7.18450        0.25919        0.44930
H          5.98486       -4.52044       -2.15198
H          3.67011       -3.36527       -1.74421
H          7.80076       -2.58707       -2.35004
H          7.78506       -0.03795       -2.27864
H          6.26573        0.65189       -2.88956
C          8.68935       -0.00217        0.26031
C          7.04839        1.17845        1.68428
C          6.43846       -1.03911        0.81528
H          9.21947        0.95494        0.04948
H          9.11176       -0.44845        1.18443
H          8.88096       -0.72143       -0.55288
H          5.99340        1.37724        1.97328
H          7.51148        0.66045        2.55605
H          7.58928        2.13583        1.55191
H          5.33969       -0.86749        0.91915
H          6.60446       -1.85092        0.12667
H          6.84660       -1.49162        1.72515
