110
speciation2376.ct
Na         4.84062       -0.74768        3.16536
Mg         2.33824        3.77887       -2.48063
C          3.34930        0.51775        5.50946
C          5.38275        1.56663        5.42817
O          4.72644        0.32491        5.21936
C          2.55492       -0.76107        5.29706
C          6.86487        1.48802        5.11041
H          3.21907        0.79909        6.58009
H          2.90486        1.30378        4.85436
H          4.93292        2.38240        4.81794
H          5.31325        1.83529        6.50886
H          7.01939        1.32998        4.02415
H          7.34174        2.45087        5.40249
H          7.34179        0.67000        5.68882
H          2.95371       -1.57545        5.93662
H          1.49429       -0.57595        5.57724
H          2.58814       -1.06761        4.23133
H          2.05904        6.19058       -3.80338
C          3.45854        6.90446       -2.33103
C          2.26397        6.02030       -2.72443
C          4.72492        6.44141       -3.04907
H          3.24870        7.97072       -2.58303
H          3.60557        6.85933       -1.23696
H          4.89720        5.37308       -2.80545
H          4.58913        6.54911       -4.14761
C          5.95695        7.23809       -2.61982
H          1.37937        6.40306       -2.16721
H          5.85383        8.31039       -2.89130
H          6.11241        7.15219       -1.52288
H          6.85226        6.82700       -3.13371
C          2.54423       -3.19047       -2.68374
C          2.95094       -4.28732       -1.97185
C          3.37335       -3.80898       -0.75791
C          3.24852       -2.44935       -0.75821
N          2.70957       -2.07998       -1.94282
C          3.65446       -1.52012        0.39706
N          4.95727       -1.84339        1.06710
C          6.20585       -1.80134        0.23442
H          2.94244       -5.32003       -2.29328
H          2.13226       -3.20069       -3.68330
H          3.76972       -4.36981        0.02174
H          2.87753       -1.65501        1.17818
H          3.60991       -0.45369        0.09009
C          6.60957       -0.35576       -0.06797
C          7.31674       -2.51762        1.02814
C          6.11802       -2.56556       -1.11881
H          6.78205        0.20617        0.87151
H          7.54288       -0.33901       -0.67444
H          5.81430        0.14916       -0.65661
H          7.01717       -3.56815        1.24370
H          8.25891       -2.57434        0.43772
H          7.52454       -2.01303        1.99071
H          5.86749       -3.63526       -0.96369
H          5.42084       -2.08913       -1.83419
H          7.09567       -2.56436       -1.64436
Na         1.98393        0.05495       -2.67249
Mg         4.95222       -3.81368        1.34647
C          3.60802       -6.25507        1.72992
C          5.71175       -6.03948        2.78314
O          4.94730       -5.73446        1.61882
C          2.78603       -5.67704        2.89027
C          5.94156       -7.54886        2.99719
H          3.04532       -6.06806        0.80088
H          3.59004       -7.36175        1.73876
H          6.71324       -5.57910        2.66884
H          5.27044       -5.58357        3.69248
H          6.49072       -7.98374        2.13641
H          6.53501       -7.70691        3.92142
H          4.99756       -8.11192        3.14473
H          2.81929       -4.56761        2.87637
H          1.72923       -6.00632        2.79530
H          3.14950       -6.05351        3.86812
H          3.23313        2.42141       -0.31333
C          3.64993        4.36759        0.54482
C          3.58864        3.41247       -0.66676
C          4.56766        3.85005        1.67647
H          4.04956        5.34295        0.21700
H          2.62500        4.50983        0.94737
H          4.19940        2.87142        2.05288
H          5.60437        3.71489        1.29686
C          4.61688        4.83328        2.85378
H          4.61908        3.27904       -1.06074
H          5.01214        5.81940        2.52862
H          3.60377        4.97350        3.28720
H          5.28661        4.44502        3.65213
C          4.11789        1.10279       -7.05212
C          4.78466        1.19601       -5.85251
C          3.85372        1.55106       -4.87878
C          2.66890        1.66913       -5.46459
N          2.76874        1.40066       -6.85839
C          1.34069        2.02203       -4.87974
N          1.25828        2.18987       -3.40217
C         -0.16253        2.46438       -2.98599
H          5.84136        1.02201       -5.72054
H          4.54922        0.84000       -8.00931
H          4.05582        1.69734       -3.82331
H          0.71584        1.15022       -5.17648
H          1.01682        2.91923       -5.41381
C         -1.12193        1.29769       -3.34760
C         -0.19889        2.64698       -1.46042
C         -0.71237        3.78111       -3.61541
H         -0.75774        0.34333       -2.90442
H         -2.14178        1.49646       -2.95508
H         -1.25242        1.16389       -4.43783
H          0.42723        3.50326       -1.15683
H         -1.23147        2.85553       -1.12564
H          0.14356        1.74067       -0.95385
H         -0.07565        4.64101       -3.33182
H         -0.78203        3.74323       -4.72005
H         -1.74479        3.97983       -3.26514
