95
speciation1690.ct
Na         1.03306       -0.09029       -0.02746
Mg        -2.14138        1.54623       -0.77525
C         -4.57950        2.27805        1.22600
C         -4.00087        3.74928       -0.43322
O         -3.51128        2.66794        0.33702
C         -5.74789        1.52114        0.55140
C         -2.94394        4.23476       -1.37586
H         -4.16252        1.71747        2.07797
H         -4.99752        3.14912        1.77817
H         -4.86591        3.45197       -1.06094
H         -4.25894        4.60839        0.22714
H         -2.73228        3.42199       -2.09704
H         -3.31981        5.11092       -1.93984
H         -2.04638        4.52733       -0.79246
H         -5.40156        0.67473       -0.07467
H         -6.43453        1.12481        1.33125
H         -6.35446        2.19713       -0.08458
H         -0.56020        3.42753       -2.15744
C          0.73013        1.76262       -2.42863
C         -0.32634        2.51307       -1.58811
C          0.24968        1.23818       -3.78869
H          1.58853        2.44942       -2.60082
H          1.11958        0.90169       -1.86911
H          1.11635        0.73673       -4.28042
H         -0.54940        0.48089       -3.65397
C         -0.23644        2.34642       -4.71766
H          0.16669        2.82612       -0.64413
H         -1.15047        2.82197       -4.30789
H          0.55616        3.11375       -4.85117
H         -0.48396        1.91601       -5.71070
C         -3.88503        0.81931       -3.16532
C         -4.13410       -0.42132       -3.72427
C         -3.41503       -1.34021       -2.97907
C         -2.76005       -0.61872       -2.00540
N         -3.06910        0.68033       -2.11780
C         -1.83367       -1.16404       -0.93926
N         -1.33694       -0.09029       -0.02746
C         -1.56874       -0.35048        1.40863
H         -4.76841       -0.63654       -4.56844
H         -4.29479        1.76420       -3.50458
H         -3.37066       -2.41097       -3.13625
H         -0.96073       -1.65588       -1.42511
H         -2.39542       -1.95428       -0.40736
C         -0.84786       -1.63192        1.88873
C         -1.02344        0.88971        2.13935
C         -3.05643       -0.55776        1.71228
H          0.20250       -1.66042        1.56527
H         -0.92152       -1.72622        2.99502
H         -1.31353       -2.54560        1.46166
H         -1.55471        1.80701        1.81694
H         -1.11683        0.78839        3.24128
H          0.04251        1.05413        1.88389
H         -3.61212        0.05170        1.01132
H         -3.41913       -1.57843        1.48397
H         -3.29080       -0.35874        2.78122
Na         4.11829        1.48197       -1.28576
Mg         6.24985       -2.07740        2.59435
H          8.16606       -3.33573        1.36192
C          8.93001       -2.98280        3.34975
C          8.18243       -2.51308        2.10759
C          8.91802       -1.94663        4.48024
H          8.43067       -3.90367        3.72175
H          9.97648       -3.23997        3.07717
H          7.86992       -1.72848        4.78044
H          9.44519       -2.38785        5.35399
C          9.62084       -0.64259        4.10483
H          8.66967       -1.63621        1.63492
H         10.66777       -0.84513        3.79437
H          9.08529       -0.12520        3.28264
H          9.63188        0.03600        4.98290
C          3.63630       -2.35919        3.94770
C          2.33728       -1.91295        3.93569
C          2.28255       -0.89543        3.00230
C          3.54072       -0.77260        2.45644
N          4.36464       -1.65241        3.06918
C          3.96908        0.17399        1.33285
N          3.40306       -0.09029       -0.02746
C          3.78790       -1.38576       -0.66396
H          1.52088       -2.30604        4.52899
H          4.02864       -3.17674        4.53995
H          1.41982       -0.32870        2.74207
H          5.07389        0.18423        1.26942
H          3.67746        1.20009        1.64049
C          3.20813       -2.62793        0.06197
C          3.18536       -1.39418       -2.07726
C          5.32212       -1.52998       -0.76070
H          2.10927       -2.54075        0.19463
H          3.41697       -3.55125       -0.52105
H          3.67552       -2.81900        1.03745
H          3.55362       -0.53672       -2.67542
H          3.44746       -2.33537       -2.61013
H          2.07618       -1.33973       -2.01933
H          5.77089       -0.63096       -1.23180
H          5.77216       -1.66739        0.24553
H          5.59818       -2.42505       -1.35820
