80
speciation960.ct
Na         1.37356        1.77747        0.20541
Mg         3.38428       -0.13164       -1.69340
H          5.59552       -0.26192       -3.16558
C          4.49735        1.32041       -4.15725
C          4.54587       -0.02902       -3.44395
C          5.05942        2.43946       -3.28014
H          5.11517        1.25800       -5.08244
H          3.44937        1.54801       -4.44630
H          4.49215        2.51838       -2.32824
H          6.12071        2.21339       -3.03940
C          4.99182        3.77031       -4.02271
H          4.19167       -0.81089       -4.14969
H          5.47145        3.67949       -5.02178
H          3.93207        4.07484       -4.15942
H          5.52450        4.55110       -3.44194
C         -1.67095        0.74413        0.36518
C         -2.28234       -0.47815        0.25868
C         -1.27823       -1.40422        0.05953
C         -0.09024       -0.69217        0.05727
N         -0.33620        0.60995        0.22507
C          1.30099       -1.24155       -0.10004
N          2.32952       -0.16767       -0.00697
C          3.20643       -0.20515        1.19382
H         -3.34726       -0.65331        0.32473
H         -2.20019        1.66911        0.53274
H         -1.41242       -2.46942       -0.05944
H          1.37597       -1.72765       -1.09489
H          1.43365       -2.02810        0.66532
C          4.01330       -1.51586        1.29840
C          4.22156        0.94544        1.08063
C          2.37393        0.01077        2.47686
H          4.61083       -1.66707        0.37511
H          4.70501       -1.47214        2.16830
H          3.37174       -2.40364        1.44947
H          3.70378        1.90229        0.89582
H          4.81228        1.04346        2.02002
H          4.93955        0.77061        0.25056
H          1.75926        0.92010        2.38468
H          1.69558       -0.84185        2.68084
H          3.03249        0.14176        3.36320
Na        -0.58504        6.19582       -2.90098
Mg         3.63474        3.91909        0.97158
H          5.63968        3.75509        2.83287
C          6.29109        5.25650        1.42802
C          5.63417        3.91940        1.73261
C          5.50832        6.38869        2.09818
H          7.33724        5.25649        1.80847
H          6.31516        5.40131        0.32744
H          4.45267        6.38166        1.75500
H          5.51473        6.24554        3.20084
C          6.12417        7.74109        1.76574
H          6.23487        3.10169        1.27221
H          7.18293        7.77442        2.10067
H          6.07903        7.91776        0.66989
H          5.55825        8.54403        2.28223
C          1.94436        7.83215       -1.99666
C          3.15308        7.70862       -1.34006
C          3.28180        6.37916       -0.99950
C          2.14493        5.75193       -1.45644
N          1.33009        6.63572       -2.06525
C          1.80652        4.30614       -1.27391
N          1.79920        3.89299        0.15330
C          0.72822        4.46701        1.02328
H          3.85533        8.50208       -1.12319
H          1.52811        8.75040       -2.38964
H          4.09373        5.91974       -0.46176
H          2.56031        3.70732       -1.81911
H          0.83709        4.08519       -1.76609
C         -0.66267        4.20216        0.43075
C          0.81544        3.79669        2.40889
C          0.86186        5.98025        1.24670
H         -0.74815        3.13715        0.22118
H         -1.46598        4.51858        1.12984
H         -0.82301        4.73953       -0.52356
H          1.82927        3.92585        2.84812
H          0.07912        4.25023        3.10811
H          0.57670        2.71975        2.35516
H          1.84297        6.23576        1.69406
H          0.69777        6.54927        0.32397
H          0.04658        6.33383        1.91070
