110
speciation2209.ct
Na         6.31393        2.06855       -3.73941
Mg         1.43756        2.85252       -1.55701
C          7.97368        1.58565       -6.22239
C          5.78514        1.37833       -7.03691
O          6.60051        1.72876       -5.91300
C          8.76674        1.48969       -4.93072
C          5.82384        2.43966       -8.15741
H          8.20459        0.66675       -6.81586
H          8.31289        2.49070       -6.76806
H          4.73519        1.27405       -6.70342
H          6.06404        0.38481       -7.46379
H          6.84035        2.53683       -8.59752
H          5.14176        2.14809       -8.98742
H          5.50201        3.42944       -7.77402
H          8.56989        0.51504       -4.43446
H          9.85107        1.58104       -5.14409
H          8.48015        2.31757       -4.25189
H          1.89107        0.29511       -0.81356
C          2.00344        1.20712        1.17153
C          1.67618        1.26528       -0.35010
C          1.91228       -0.23922        1.60900
H          3.01303        1.56471        1.42362
H          1.32556        1.80320        1.80212
H          2.21176       -0.34792        2.67136
H          2.62671       -0.82073        0.98635
C          0.48108       -0.74314        1.41037
H          2.56548        1.19610       -0.92503
H         -0.20019       -0.20376        2.10158
H          0.11970       -0.56887        0.37287
H          0.44543       -1.82948        1.59770
C          7.90825        2.77871       -1.07078
C          7.94945        3.13861        0.26503
C          6.65368        3.30219        0.65785
C          5.86713        3.03797       -0.44809
N          6.63123        2.71853       -1.53449
C          4.37462        2.99303       -0.31952
N          3.48347        3.79088       -1.21176
C          3.61825        5.28957       -1.04655
H          8.81972        3.24922        0.90232
H          8.78801        2.55724       -1.65782
H          6.31025        3.54948        1.65709
H          4.27315        1.93095       -0.50645
H          4.09750        3.19631        0.72797
C          4.96787        5.78212       -1.59966
C          2.50820        6.03988       -1.79953
C          3.52809        5.75667        0.43740
H          5.10995        5.42719       -2.64140
H          5.00952        6.89171       -1.58379
H          5.81677        5.44376       -0.98125
H          1.51669        5.61956       -1.55400
H          2.48594        7.11508       -1.53132
H          2.69498        6.05962       -2.88465
H          2.56955        5.53451        0.91837
H          4.33252        5.33953        1.07144
H          3.63139        6.86207        0.49159
Na         3.12958        2.30288       -2.66362
Mg        -1.53792       -1.63167       -4.44571
C         -1.37949        4.47509       -0.95073
C          0.33945        4.22917        0.55185
O         -0.28750        3.62085       -0.56502
C         -2.45403        3.75489       -1.76032
C         -0.30919        3.91989        1.90626
H         -1.95717        4.84453       -0.06182
H         -1.00909        5.36367       -1.49711
H          1.36094        3.82485        0.56973
H          0.42789        5.33796        0.44059
H         -0.47783        2.83777        2.03842
H          0.37305        4.29080        2.70514
H         -1.28537        4.42360        2.03878
H         -2.00578        3.20729       -2.59766
H         -3.16918        4.51030       -2.16186
H         -3.03900        3.04521       -1.13421
H         -4.04925       -0.93969       -4.78430
C         -4.03060       -2.97589       -5.50593
C         -3.40052       -1.59469       -5.39885
C         -3.17383       -3.91031       -6.36436
H         -4.13612       -3.39594       -4.48303
H         -5.04437       -2.88098       -5.95878
H         -3.07162       -3.48753       -7.38823
H         -2.16328       -4.00337       -5.91179
C         -3.80134       -5.29891       -6.47061
H         -3.31035       -1.13548       -6.41563
H         -3.90297       -5.75738       -5.46394
H         -4.80370       -5.23756       -6.94585
H         -3.15424       -5.95169       -7.09405
C          0.70803       -2.91046       -3.06799
C          2.01327       -2.74365       -2.64357
C          2.37862       -1.44728       -2.97500
C          1.26815       -0.87174       -3.57992
N          0.25664       -1.77022       -3.61250
C          1.19682        0.46181       -4.28731
N          1.35828        1.81087       -3.61944
C          1.21339        2.88087       -4.66096
H          2.63535       -3.50904       -2.20415
H          0.12713       -3.81967       -2.98520
H          3.35664       -1.01269       -2.84627
H          0.21381        0.42300       -4.78939
H          1.97581        0.34726       -5.06248
C         -0.21271        2.93037       -5.25352
C          1.45379        4.17823       -3.96683
C          2.25355        2.80729       -5.82480
H         -0.95622        2.97581       -4.44177
H         -0.33296        3.83127       -5.88883
H         -0.44448        2.06660       -5.90612
H          2.49907        4.13356       -3.59859
H          1.36707        5.04658       -4.65271
H          0.73884        4.28852       -3.12797
H          3.29672        2.90541       -5.45279
H          2.18679        1.89648       -6.44785
H          2.08165        3.64551       -6.53608
