96
speciation1055.ct
Na         0.84801       -0.34598       -0.26524
Mg         1.68381        1.56711       -1.19680
C         -0.17042        2.48679       -2.37903
C         -1.72979        0.77283       -2.22041
O         -0.39920        1.13436       -1.86267
C         -0.97508        3.66955       -1.82102
C         -2.09880       -0.62075       -1.77391
H          0.89649        2.72746       -2.36857
H         -0.44825        2.59649       -3.42921
H         -2.46259        1.43683       -1.71900
H         -1.87858        0.81687       -3.32283
H         -2.00756       -0.70097       -0.67301
H         -3.16013       -0.79568       -2.06163
H         -1.46709       -1.37502       -2.27573
H         -0.63000        3.92528       -0.83353
H         -0.77968        4.58030       -2.42829
H         -2.07103        3.52941       -1.87141
H         -1.03951        1.83166        0.12244
C         -0.51041        2.70610        1.86445
C         -0.05206        1.93540        0.61050
C         -1.02506        4.10733        1.59348
H         -1.37345        2.16046        2.31841
H          0.31225        2.73303        2.60232
H         -0.20506        4.70544        1.16689
H         -1.89495        4.06339        0.89962
C         -1.49783        4.77953        2.86575
H          0.15086        0.97163        1.00979
H         -2.36308        4.22783        3.29262
H         -0.67045        4.81168        3.60418
H         -1.81255        5.81319        2.61627
C          0.48996       -3.31848       -1.18376
C          1.09832       -4.22999       -2.02494
C          2.13770       -3.55190       -2.62604
C          2.11223       -2.26166       -2.12297
N          1.13331       -2.14340       -1.23121
C          2.98351       -1.11261       -2.51402
N          2.15840        0.05926       -2.92790
C          1.82417       -0.02403       -4.40642
H          0.80181       -5.25495       -2.18148
H         -0.36750       -3.52100       -0.55549
H          2.82679       -3.94761       -3.36661
H          3.68731       -1.47445       -3.26793
H          3.68676       -0.79834       -1.77075
C          0.93546       -1.26037       -4.70158
C          1.01825        1.17482       -4.87433
C          3.08076       -0.03787       -5.31969
H          0.07263       -1.27894       -4.00038
H          0.53113       -1.23572       -5.73093
H          1.49097       -2.20555       -4.62411
H          1.51143        2.12642       -4.58769
H          0.89397        1.17278       -5.97739
H         -0.00719        1.03641       -4.52481
H          3.66576        0.89468       -5.19094
H          3.75778       -0.89962       -5.19224
H          2.76354       -0.11594       -6.38217
Mg         2.89649        1.74187       -2.37391
C          0.66440       -2.43245        2.05293
C         -0.86170       -0.69849        2.51110
O         -0.14994       -1.39357        1.49397
C         -0.12289       -3.49401        2.84543
C          0.05945        0.01367        3.51795
H          1.15142       -2.98127        1.23351
H          1.50334       -2.02683        2.65682
H         -1.54092        0.00508        2.00005
H         -1.59304       -1.34731        3.03448
H          0.85117        0.58513        2.99669
H         -0.53834        0.69401        4.15595
H          0.57485       -0.70849        4.17843
H         -0.95313       -3.89795        2.22791
H          0.54792       -4.32883        3.13815
H         -0.53551       -3.08144        3.79043
C          3.81869       -1.03728        0.57625
C          5.16386       -0.81458        0.75964
C          5.35363        0.51979        0.60851
C          4.11385        1.07520        0.35894
N          3.15426        0.12203        0.28373
C          3.94442        2.55315        0.23951
N          3.21280        2.99073       -0.95577
C          3.28838        4.47702       -1.18689
H          5.93833       -1.55362        0.95813
H          3.35545       -2.01805        0.61312
H          6.30814        1.04656        0.69298
H          3.39388        2.87775        1.14996
H          4.95600        2.99594        0.26942
C          4.72625        4.93486       -1.55433
C          2.40069        4.90933       -2.35689
C          2.81764        5.27140        0.06333
H          5.07911        4.39961       -2.45860
H          4.73810        6.02705       -1.77010
H          5.45579        4.79061       -0.73636
H          1.34881        4.79393       -2.09530
H          2.51754        5.99716       -2.56476
H          2.64611        4.34786       -3.28190
H          1.78253        4.98164        0.31819
H          3.46368        5.09288        0.94685
H          2.83297        6.36620       -0.12708
