95
speciation1262.ct
Na         1.06610       -0.05890       -0.04649
Mg         2.56434       -2.52450       -0.87220
C         -1.96281       -1.14063        0.53686
C         -2.03801        0.73436       -0.91055
O         -1.25390       -0.05890       -0.04649
C         -2.41456       -2.22390       -0.45772
C         -1.19526        1.88762       -1.43232
H         -1.28020       -1.61922        1.27051
H         -2.82906       -0.76706        1.12463
H         -2.39238        0.15222       -1.78335
H         -2.90197        1.16947       -0.36253
H         -0.31232        1.50205       -1.97871
H         -1.80098        2.51048       -2.12433
H         -0.84112        2.51469       -0.58878
H         -1.57096       -2.64449       -1.02722
H         -2.87875       -3.06338        0.09940
H         -3.16557       -1.83711       -1.17398
H          4.52652       -3.21947        1.36068
C          3.20318       -3.15915        2.96644
C          3.59439       -2.68230        1.55248
C          4.31127       -2.97096        4.05865
H          2.30452       -2.60160        3.29717
H          2.93898       -4.23415        2.91651
H          4.55414       -1.89686        4.21768
H          3.90087       -3.35901        5.01665
C          5.63531       -3.70656        3.80598
H          4.02909       -1.71805        1.62696
H          5.46139       -4.78430        3.61022
H          6.19351       -3.25445        2.95953
H          6.28407       -3.61992        4.70854
C          4.18465       -1.99568       -3.77029
C          4.97922       -1.03038       -4.34022
C          5.04712       -0.00734       -3.44721
C          4.28692       -0.39713       -2.36426
N          3.80749       -1.66153       -2.50486
C          4.06954        0.54198       -1.22786
N          3.43610       -0.05890       -0.04649
C          3.81172        0.76739        1.19717
H          5.45175       -1.06010       -5.31207
H          3.92004       -2.89230       -4.29813
H          5.58614        0.93082       -3.57197
H          5.09522        0.88112       -0.99652
H          3.48364        1.41824       -1.58157
C          3.47821        2.27219        1.00435
C          2.97263        0.38959        2.46308
C          5.33094        0.65279        1.56280
H          2.38735        2.41377        0.85193
H          3.77228        2.84912        1.91335
H          4.03136        2.73855        0.16857
H          3.22584       -0.53025        2.98556
H          3.15234        1.12222        3.27833
H          1.88866        0.37555        2.23801
H          5.67550       -0.39295        1.67337
H          6.00636        1.13579        0.83166
H          5.53875        1.16900        2.52577
Na         4.22609       -2.25138       -0.47761
Mg         6.82571       -4.45357       -0.17880
H          0.15847       -1.51144       -1.39880
C          0.77814       -1.71857       -3.44250
C          1.08831       -1.47841       -1.96437
C         -0.06943       -0.56441       -3.96360
H          1.70914       -1.71287       -4.03934
H          0.28189       -2.69433       -3.56913
H         -1.01560       -0.51289       -3.38840
H          0.47346        0.40221       -3.85497
C         -0.42946       -0.72339       -5.43980
H          1.54182       -0.46769       -1.95175
H          0.49154       -0.71551       -6.05808
H         -0.98505       -1.66624       -5.58980
H         -1.07293        0.13311       -5.74769
C          0.80093       -4.93708       -0.89903
C          0.79041       -6.29387       -0.62776
C          2.07416       -6.63322       -0.28052
C          2.81181       -5.46856       -0.34392
N          2.04851       -4.43080       -0.73180
C          4.27737       -5.39229       -0.03082
N          5.01608       -4.44386       -0.90873
C          5.23477       -5.03558       -2.28840
H         -0.05925       -6.96246       -0.66401
H         -0.06290       -4.35448       -1.17941
H          2.43694       -7.61502        0.00306
H          4.71867       -6.40211       -0.01676
H          4.40998       -5.17727        1.03577
C          3.89711       -5.21366       -3.06412
C          6.22926       -4.14722       -3.05529
C          5.92291       -6.43607       -2.28297
H          3.24222       -4.33243       -2.99406
H          4.07356       -5.47952       -4.12743
H          3.30368       -6.06297       -2.67413
H          7.25938       -4.26733       -2.66555
H          6.24109       -4.41568       -4.13823
H          6.04710       -3.08607       -2.91370
H          6.91109       -6.39028       -1.77710
H          5.32247       -7.24166       -1.81893
H          6.09197       -6.77965       -3.32885
