53
speciation894.ct
Na         1.64421        0.92639        1.18503
C          4.56475        1.68425        2.92000
C          5.39110        2.78012        2.69367
C          4.79291        3.52326        1.71638
C          3.65531        2.84263        1.36793
N          3.49670        1.70752        2.07505
C          2.65842        3.16851        0.34165
N          2.61729        1.99867       -0.54688
C          3.54203        2.18915       -1.74865
H          6.32804        3.01633        3.19046
H          4.75128        0.90256        3.64774
H          5.16853        4.44510        1.27407
H          2.89673        4.12129       -0.16677
H          1.67258        3.28874        0.82924
C          4.96633        2.74108       -1.43150
C          3.86835        0.91134       -2.52159
C          2.81484        3.11626       -2.74021
H          5.54221        2.02500       -0.79852
H          5.53991        2.84828       -2.38211
H          4.97936        3.73459       -0.96293
H          3.01975        0.33003       -2.82812
H          4.39345        1.12203       -3.47668
H          4.61725        0.33452       -1.96195
H          1.81953        2.68384       -2.98543
H          2.66254        4.13016       -2.32772
H          3.39321        3.22246       -3.68134
Na         2.68984       -3.31713        1.39112
Li         2.07544        0.13913        0.28550
C         -1.62158        0.78924        0.94667
C         -2.70559       -0.01879        0.63290
C         -2.21182       -1.28278        0.45911
C         -0.85379       -1.18747        0.66168
N         -0.47941        0.07404        0.94811
C          0.07367       -2.32431        0.47984
N          1.46806       -1.85952        0.39276
C          1.92955       -1.72768       -0.99492
H         -3.73846        0.28057        0.50611
H         -1.67674        1.85309        1.11359
H         -2.76386       -2.16824        0.15728
H         -0.04373       -3.07210        1.28912
H         -0.24911       -2.85519       -0.43523
C          1.01403       -0.62319       -1.69113
C          3.44940       -1.49669       -0.80454
C          1.87641       -2.98638       -1.89089
H          0.92898        0.33864       -1.15296
H          1.17847       -0.39212       -2.74981
H         -0.03457       -0.97110       -1.74345
H          3.87962       -2.33155       -0.21204
H          4.00075       -1.58129       -1.75524
H          3.72792       -0.60242       -0.20693
H          2.52107       -3.79657       -1.49513
H          0.86963       -3.37933       -2.10177
H          2.28397       -2.69122       -2.88836
