81
speciation770.ct
Na         7.04177        2.58435        1.77289
Mg         1.38055        2.07359       -1.18914
C          1.04240        0.15377        0.85896
C         -1.07641        0.85164        0.01053
O          0.29774        1.18112        0.20367
C          0.91650       -1.26338        0.28214
C         -1.84350        0.68015        1.33812
H          2.11011        0.42574        0.76786
H          0.82669        0.15182        1.94992
H         -1.55949        1.69104       -0.52661
H         -1.20495       -0.04921       -0.63050
H         -1.76752        1.60057        1.95620
H         -2.91805        0.48123        1.13680
H         -1.46213       -0.17630        1.92976
H          1.16025       -1.26856       -0.79332
H          1.63495       -1.93424        0.80225
H         -0.09685       -1.68614        0.43951
H          4.98173        1.19153       -4.11900
C          6.23374        1.22950       -2.36393
C          5.10652        1.83224       -3.22513
C          5.91992       -0.19157       -1.86912
H          7.16878        1.19117       -2.96747
H          6.43317        1.89046       -1.50215
H          4.97008       -0.19855       -1.29527
H          5.81095       -0.87333       -2.73952
C          7.03404       -0.72000       -0.96048
H          5.43535        2.82875       -3.58491
H          8.00521       -0.74924       -1.50373
H          7.14364       -0.07103       -0.06499
H          6.79196       -1.74897       -0.62012
C          4.53249        2.61746        3.62982
C          3.15549        2.62197        3.63572
C          2.74954        2.59169        2.32092
C          3.90370        2.59062        1.56054
N          4.98718        2.60436        2.36022
C          3.99632        2.59434        0.06098
N          2.97374        3.38452       -0.65958
C          3.09947        4.90772       -0.45688
H          2.51070        2.65093        4.50699
H          5.17534        2.63347        4.50087
H          1.73338        2.60781        1.95747
H          5.01773        2.88680       -0.23490
H          3.88366        1.54418       -0.26704
C          4.48688        5.42995       -0.90294
C          2.05312        5.74032       -1.22672
C          2.86759        5.34713        1.01458
H          4.68194        5.16018       -1.96390
H          4.53403        6.54108       -0.82199
H          5.30936        5.04313       -0.27186
H          1.01979        5.41057       -0.98888
H          2.09397        6.81635       -0.94511
H          2.28234        5.81232       -2.29690
H          1.87174        5.01122        1.36994
H          3.67082        5.02342        1.69589
H          2.89164        6.45736        1.10533
Mg         3.14547        2.21901       -2.36192
C          1.35154       -0.92968       -7.00683
C          2.65326       -0.90846       -6.55039
C          2.62905       -0.48128       -5.23860
C          1.36083       -0.23155       -4.90134
N          0.48726       -0.52595       -5.97734
C          0.90059        0.30347       -3.56709
N          1.39881        1.67033       -3.26588
C          0.93051        2.74412       -4.19148
H          3.52779       -1.16536       -7.13479
H          1.03871       -1.20812       -8.00604
H          3.47614       -0.34444       -4.59486
H          1.23605       -0.39386       -2.78452
H         -0.21001        0.29885       -3.54109
C         -0.61057        2.79859       -4.33761
C          1.36217        4.01129       -3.55518
C          1.60445        2.71432       -5.58613
H         -1.09658        2.87374       -3.34005
H         -0.90685        3.69869       -4.92522
H         -1.01202        1.91744       -4.87305
H          2.46835        3.98627       -3.42249
H          1.08422        4.90842       -4.15069
H          0.84536        4.03463       -2.58222
H          2.71229        2.70453       -5.49195
H          1.28455        1.87170       -6.21442
H          1.31870        3.61999       -6.16714
