110
speciation2408.ct
Na         7.32789        2.00161       -1.22031
Mg         2.15722        4.69822       -1.09715
C         10.21798        2.62180       -0.52607
C          8.79918        3.05859        1.33778
O          8.97903        3.15537       -0.06923
C         10.53750        1.18787       -0.07425
C          9.74019        3.98251        2.12291
H         10.16387        2.60588       -1.63482
H         11.05583        3.30920       -0.28478
H          7.76310        3.37416        1.57677
H          8.87921        2.01390        1.69748
H          9.53562        5.04492        1.87386
H          9.57943        3.83462        3.21187
H         10.80657        3.75965        1.91460
H          9.70034        0.50631       -0.33271
H         11.45823        0.83811       -0.58635
H         10.74366        1.13844        1.01527
H          3.90916        7.04845       -1.57233
C          5.28529        5.65927       -2.50053
C          4.20510        5.99253       -1.42303
C          4.70447        5.77513       -3.90978
H          6.16220        6.34039       -2.42025
H          5.74721        4.67205       -2.32349
H          3.76996        5.18638       -3.97659
H          4.47903        6.84750       -4.08778
C          5.65228        5.27234       -5.00143
H          4.78912        6.02032       -0.47959
H          6.63400        5.78897       -4.96092
H          5.81010        4.17585       -4.90430
H          5.19172        5.46624       -5.99483
C          5.86825       -0.43830       -2.79596
C          4.73772       -0.96885       -3.38740
C          3.76948        0.01218       -3.33732
C          4.35656        1.10231       -2.72227
N          5.64116        0.82299       -2.39619
C          3.70065        2.43191       -2.46630
N          2.87194        2.55189       -1.24276
C          3.58462        2.22334        0.02528
H          4.63594       -1.96602       -3.79295
H          6.80843       -0.95748       -2.65296
H          2.75898       -0.06671       -3.71505
H          4.48115        3.15766       -2.44193
H          3.14696        2.73239       -3.36212
C          4.85021        3.06792        0.21086
C          2.63162        2.61795        1.08786
C          3.89397        0.72572        0.26215
H          4.56432        4.11269        0.19128
H          5.33999        2.88798        1.18696
H          5.57826        2.89248       -0.58460
H          1.71253        2.00751        1.06854
H          3.09720        2.57475        2.09729
H          2.39984        3.64342        0.79292
H          3.01592        0.08840        0.03461
H          4.77179        0.35698       -0.27731
H          4.15807        0.56596        1.33198
Na         1.46195        0.95649       -1.49000
Mg        -0.49703        4.02404        1.20066
C         -0.80677        2.05929       -0.39371
C         -1.84857        1.83365        1.74647
O         -0.71474        2.23337        1.00035
C         -2.00891        2.74325       -1.03171
C         -2.00160        0.32172        1.79453
H          0.09119        2.55490       -0.81739
H         -0.74307        0.98452       -0.65943
H         -1.67362        2.14364        2.79928
H         -2.77245        2.35333        1.43088
H         -1.09121       -0.13934        2.23038
H         -2.87417        0.06823        2.43691
H         -2.18227       -0.08738        0.78199
H         -2.03132        3.81398       -0.73308
H         -1.92084        2.66910       -2.13340
H         -2.95133        2.24283       -0.73439
H         -0.23679        4.51987       -2.61051
C          0.74154        4.51874       -4.50132
C          0.71875        4.92293       -3.00599
C          0.55125        3.01356       -4.74003
H         -0.10591        5.02374       -5.02916
H          1.67943        4.88737       -4.96306
H          1.28974        2.43768       -4.17666
H         -0.45310        2.69379       -4.38699
C          0.70746        2.65327       -6.21964
H          0.59915        6.01577       -3.09548
H         -0.08838        3.12451       -6.83506
H          1.70066        2.98311       -6.59527
H          0.64339        1.55076       -6.33966
C         -1.92406        4.76593        3.83741
C         -1.34661        5.41056        4.91519
C         -0.02559        5.67366        4.57895
C          0.12691        5.19379        3.29244
N         -0.98470        4.63928        2.86759
C          1.31326        5.26925        2.33033
N          0.87585        5.44221        0.86933
C          0.26010        6.83155        0.69290
H         -1.84270        5.64658        5.85344
H         -2.93852        4.42467        3.75278
H          0.71454        6.16215        5.19250
H          2.12252        5.93931        2.65804
H          1.70243        4.27918        2.54001
C          1.27000        7.95063        1.04067
C         -0.16612        7.02129       -0.75361
C         -1.04266        7.11617        1.50678
H          2.18463        7.86522        0.42003
H          0.81460        8.95134        0.87291
H          1.55506        7.93203        2.11153
H         -0.87854        6.22418       -1.05896
H         -0.68097        7.99920       -0.89844
H          0.74296        7.05896       -1.36603
H         -1.82863        6.35895        1.29720
H         -0.87287        7.24162        2.58897
H         -1.47759        8.10282        1.23910
