110
speciation2059.ct
Na         4.47194        4.66560        3.03980
Mg         1.95061        4.90901       -1.16188
C          4.73261        5.48523        5.92355
C          2.96678        3.94923        6.05725
O          3.68404        4.84119        5.21484
C          5.85097        4.53636        6.38845
C          1.83007        3.27506        5.30978
H          5.19218        6.21364        5.22321
H          4.33575        6.08765        6.77034
H          3.59679        3.13731        6.47995
H          2.49838        4.54179        6.87823
H          2.23317        2.53518        4.58659
H          1.19020        2.73659        6.04362
H          1.20884        4.02525        4.77849
H          6.24100        3.94409        5.53394
H          6.68294        5.12811        6.82394
H          5.50653        3.84633        7.18550
H          3.32669        7.27515       -1.41400
C          4.42978        6.09950       -2.86649
C          3.58591        6.21944       -1.59230
C          3.74470        6.62948       -4.11352
H          5.38332        6.65006       -2.73308
H          4.66168        5.04504       -3.04136
H          4.42161        6.48967       -4.97813
H          2.82911        6.06026       -4.29227
C          3.39616        8.10116       -4.04263
H          4.22719        5.98181       -0.75213
H          2.69243        8.29210       -3.21202
H          4.32703        8.68951       -3.91148
H          2.89520        8.38366       -4.99027
C          6.35926        5.15649        0.38028
C          6.70214        4.71586       -0.87839
C          5.79616        3.72773       -1.20588
C          4.92311        3.60897       -0.14687
N          5.27683        4.48622        0.81789
C          3.78722        2.61577       -0.04141
N          2.80588        2.80356       -1.13184
C          1.72170        1.80763       -1.23227
H          7.53215        5.06063       -1.48023
H          6.88493        5.90634        0.95422
H          5.78512        3.15693       -2.11127
H          4.22803        1.59613       -0.10348
H          3.29921        2.73735        0.94586
C          0.83838        1.87328        0.03941
C          0.93772        2.19650       -2.45926
C          2.23933        0.38102       -1.48689
H          0.56919        2.92768        0.25415
H         -0.08991        1.27623       -0.08255
H          1.38819        1.48176        0.92068
H          1.59796        2.27371       -3.34632
H          0.08001        1.53206       -2.66951
H          0.55438        3.16550       -2.22662
H          3.00601        0.41318       -2.28631
H          2.65012       -0.09548       -0.57946
H          1.40939       -0.26395       -1.86296
Na         6.79788        3.29807       -4.14807
Mg         3.90583        2.47476       -2.75729
C         -1.02842        5.38245       -1.80356
C          0.28663        5.08695       -3.74803
O          0.30291        5.36505       -2.34486
C         -1.79396        4.04296       -1.75755
C         -0.13462        6.28184       -4.61031
H         -0.98888        5.76400       -0.76942
H         -1.64687        6.13011       -2.34137
H          1.28459        4.73431       -4.03674
H         -0.35217        4.22653       -4.01815
H          0.50313        7.16509       -4.41422
H         -0.05159        6.00001       -5.68253
H         -1.19721        6.55021       -4.43624
H         -1.34432        3.35497       -1.01925
H         -2.83943        4.23357       -1.43684
H         -1.86824        3.52949       -2.73581
H          0.62451        5.25053        1.23026
C          1.39626        7.28594        1.11029
C          1.52249        5.76302        0.83667
C          0.24096        7.97728        0.37538
H          1.26174        7.44076        2.20741
H          2.35110        7.78394        0.82312
H          0.39316        7.86874       -0.71848
H         -0.71948        7.50339        0.67236
C          0.16642        9.47672        0.70828
H          2.40315        5.42553        1.42933
H         -0.02666        9.62958        1.79487
H          1.10727        9.99421        0.43915
H         -0.66867        9.94517        0.14248
C          6.05750       -0.79710       -0.97318
C          7.06541        0.14361       -1.01015
C          6.95523        0.82812       -2.21013
C          5.90576        0.34020       -2.86957
N          5.29012       -0.70050       -2.13740
C          5.44982        0.73229       -4.24647
N          5.00579        2.14596       -4.38274
C          4.53755        2.42813       -5.79021
H          7.82173        0.30055       -0.24061
H          5.86849       -1.49971       -0.17293
H          7.61848        1.60790       -2.55958
H          4.62399        0.03921       -4.47394
H          6.30284        0.51678       -4.91488
C          3.29717        1.58818       -6.21972
C          4.13346        3.89081       -5.90209
C          5.68586        2.22281       -6.82214
H          2.38099        1.91953       -5.68775
H          3.11183        1.72170       -7.30895
H          3.40029        0.49797       -6.08388
H          5.00824        4.52865       -5.67476
H          3.78175        4.13235       -6.93171
H          3.30290        4.09253       -5.20213
H          6.55695        2.86665       -6.56767
H          6.02750        1.17431       -6.90922
H          5.34943        2.51499       -7.84136
