110
speciation1871.ct
Na         0.38262        0.22650       -4.77962
Mg        -2.82818        2.87427        0.35173
C         -1.27199       -2.32940       -4.27517
C          0.62805       -2.97221       -5.57219
O         -0.10779       -1.90260       -4.96809
C         -1.04295       -3.43694       -3.23173
C         -0.12187       -3.68513       -6.70745
H         -1.64735       -1.45213       -3.72445
H         -2.07548       -2.61049       -4.98766
H          1.55038       -2.57923       -6.02395
H          0.98433       -3.70054       -4.81333
H         -0.32255       -2.97952       -7.53975
H          0.50395       -4.51890       -7.09688
H         -1.07617       -4.13039       -6.36042
H         -0.23865       -3.14620       -2.52436
H         -1.97996       -3.60993       -2.66309
H         -0.78218       -4.40387       -3.71330
H         -3.85565        5.10390       -0.85178
C         -5.55822        3.85778       -1.30157
C         -4.06286        4.03608       -1.07226
C         -6.36274        4.26602       -0.07418
H         -5.85893        4.50269       -2.15979
H         -5.76628        2.80474       -1.57882
H         -6.07500        3.62364        0.78390
H         -6.14105        5.32795        0.17232
C         -7.85874        4.12835       -0.34140
H         -3.59889        3.81936       -2.05646
H         -8.16272        4.78685       -1.18424
H         -8.10956        3.07688       -0.59605
H         -8.42632        4.42704        0.56381
C          0.52539        3.11060       -3.35764
C          0.04865        4.05358       -2.46185
C         -0.98491        3.46627       -1.79199
C         -1.11650        2.18919       -2.30784
N         -0.18994        1.95942       -3.28164
C         -2.18622        1.19925       -1.87342
N         -2.41090        1.03327       -0.40522
C         -1.31998        0.42117        0.36684
H          0.41949        5.06215       -2.30351
H          1.34599        3.28529       -4.03035
H         -1.55290        3.94768       -1.01738
H         -3.14770        1.57722       -2.28368
H         -2.02555        0.23279       -2.36913
C         -0.14052        1.39462        0.48139
C         -1.92010        0.13460        1.74454
C         -0.82866       -0.90520       -0.24634
H         -0.54943        2.39092        0.68966
H          0.58824        1.08438        1.25783
H          0.42720        1.47168       -0.46647
H         -2.73342       -0.61775        1.65721
H         -1.15546       -0.23683        2.45803
H         -2.38723        1.04956        2.14132
H         -1.68217       -1.59212       -0.41194
H         -0.32317       -0.73400       -1.22081
H         -0.09435       -1.39682        0.42630
Na        -5.13074       -2.38622       -2.95387
Mg        -3.73844       -0.43044       -0.64032
C          0.60317        1.66662       -7.39790
C          2.31031        0.13629       -7.20706
O          1.44700        0.99636       -6.47695
C         -0.26522        2.67579       -6.67290
C          3.39747       -0.43454       -6.31038
H          1.21457        2.25739       -8.12102
H         -0.04832        0.95203       -7.95075
H          1.74500       -0.68804       -7.70099
H          2.85938        0.71452       -7.98994
H          2.96816       -1.06471       -5.51244
H          4.09338       -1.04872       -6.92470
H          3.96803        0.38601       -5.83218
H          0.37852        3.39703       -6.13187
H         -0.87587        3.24083       -7.40830
H         -0.94050        2.15664       -5.96297
H         -2.97823        4.79293        2.31165
C         -1.84124        3.41721        3.54252
C         -2.89674        3.69275        2.43434
C         -0.43732        3.95569        3.21577
H         -2.17737        3.89746        4.48850
H         -1.77786        2.33024        3.74373
H         -0.06620        3.52840        2.28432
H         -0.46539        5.05806        3.09264
C          0.58660        3.58077        4.28819
H         -3.87415        3.32454        2.81491
H          0.33657        4.05698        5.25783
H          0.62652        2.47670        4.41929
H          1.59619        3.92215        3.97047
C         -6.09706       -6.10606       -1.40339
C         -6.30048       -6.22755       -0.04786
C         -5.71294       -5.12645        0.55186
C         -5.18313       -4.36067       -0.40257
N         -5.38879       -4.92992       -1.67959
C         -4.46646       -3.04843       -0.16823
N         -5.06598       -1.89416       -0.87542
C         -6.42190       -1.44553       -0.42539
H         -6.82679       -7.03492        0.44575
H         -6.44240       -6.81457       -2.15344
H         -5.70314       -4.91491        1.61261
H         -3.43854       -3.18615       -0.55658
H         -4.36695       -2.83791        0.91390
C         -6.42914       -1.08712        1.07645
C         -6.78596       -0.18832       -1.22682
C         -7.54034       -2.48323       -0.70381
H         -5.66738       -0.30962        1.29559
H         -7.42688       -0.70095        1.37984
H         -6.23033       -1.97684        1.70877
H         -6.82133       -0.41569       -2.31409
H         -7.78716        0.19532       -0.92426
H         -6.03681        0.60641       -1.05109
H         -7.55889       -2.77635       -1.77516
H         -7.46267       -3.38457       -0.07778
H         -8.53528       -2.05890       -0.44539
