95
speciation1184.ct
Na         1.21433        0.34670        0.17696
Mg        -1.94382       -0.16019        1.85398
C          3.93566        0.97788       -1.03053
C          4.18037       -0.67750        0.65803
O          3.39226        0.39802        0.15132
C          4.26760       -0.00840       -2.16909
C          5.55430       -0.21463        1.17996
H          3.18040        1.69060       -1.40007
H          4.82068        1.60506       -0.79224
H          3.64880       -1.12800        1.51576
H          4.29449       -1.49975       -0.07743
H          5.42801        0.51421        2.00771
H          6.12921       -1.08677        1.55816
H          6.16966        0.25231        0.38233
H          3.37242       -0.60679       -2.43673
H          4.61687        0.54965       -3.06048
H          5.10759       -0.68388       -1.90687
H         -4.31160        0.78925        0.91114
C         -3.19364        2.45665        0.12897
C         -3.42528        1.37973        1.21284
C         -2.87333        1.80176       -1.19823
H         -4.09294        3.09681        0.01485
H         -2.36994        3.14726        0.39035
H         -1.99701        1.15600       -1.02360
H         -3.74674        1.22421       -1.55791
C         -2.47468        2.81689       -2.23967
H         -3.65874        1.91342        2.15636
H         -3.26834        3.56903       -2.42605
H         -1.59244        3.27773       -1.80634
H         -2.18983        2.33519       -3.19649
C         -0.27383       -2.41650        6.03978
C         -0.64067       -3.47391        5.24021
C         -0.31098       -3.11789        3.94942
C          0.22683       -1.84712        3.99685
N          0.25931       -1.42972        5.29126
C          0.76787       -1.11356        2.77152
N          0.07663        0.10099        2.24073
C          0.17164        1.34063        3.08945
H         -1.08707       -4.40319        5.57436
H         -0.37697       -2.36914        7.11753
H         -0.45906       -3.73854        3.07054
H          0.74275       -1.85997        1.96222
H          1.84535       -0.91801        2.93446
C          1.58054        1.59802        3.66808
C         -0.14255        2.54484        2.20337
C         -0.91377        1.34347        4.19554
H          2.32229        1.69387        2.84557
H          1.58790        2.54870        4.24811
H          1.91474        0.79779        4.34834
H         -1.13652        2.39087        1.80571
H         -0.15809        3.49379        2.78815
H          0.57518        2.65136        1.36450
H         -1.92528        1.22390        3.75302
H         -0.81414        0.55410        4.93453
H         -0.89836        2.29833        4.76447
Na         0.98185        0.33133        6.28568
Mg        -0.64346        4.71524       -2.22676
H         -2.64973       -2.68204        2.72312
C         -4.59018       -2.07795        2.05206
C         -3.24691       -1.74702        2.71889
C         -4.40182       -2.50172        0.59242
H         -5.09132       -2.90652        2.60819
H         -5.24508       -1.18431        2.10411
H         -3.87880       -1.68945        0.04770
H         -3.78529       -3.42687        0.54129
C         -5.74394       -2.76280       -0.09256
H         -3.45135       -1.48763        3.78042
H         -6.28346       -3.60213        0.39701
H         -6.37922       -1.85211       -0.05404
H         -5.57253       -3.02617       -1.15803
C          1.74195        4.31928       -3.23227
C          2.79096        3.64646       -3.78381
C          2.42445        2.33089       -3.80995
C          1.17119        2.23453       -3.24452
N          0.73771        3.49028       -2.90075
C          0.42870        0.87894       -3.19406
N          0.09820        0.25291       -1.86804
C         -0.50729       -1.12599       -1.99914
H          3.71004        4.07598       -4.15192
H          1.68558        5.39205       -3.08321
H          3.00047        1.52232       -4.22133
H          1.10469        0.18618       -3.72843
H         -0.48358        0.96064       -3.82010
C          0.38895       -2.11330       -2.79120
C         -0.66922       -1.69654       -0.58965
C         -1.91303       -1.13211       -2.66008
H          1.39557       -2.18956       -2.33458
H         -0.06728       -3.12980       -2.78738
H          0.48328       -1.84067       -3.86148
H         -1.32007       -1.04115        0.02229
H         -1.12093       -2.71278       -0.61157
H          0.32814       -1.77553       -0.12764
H         -2.66247       -0.61128       -2.05177
H         -1.91798       -0.71254       -3.68434
H         -2.30471       -2.17109       -2.73075
