96
speciation1124.ct
Na         0.26900        1.14926       -0.28034
Mg        -3.87895        0.96338        4.97224
C          2.18807        3.32216       -1.38778
C          0.08772        4.20102       -0.67040
O          0.81995        3.05789       -1.08405
C          2.98808        3.99117       -0.26828
C         -0.07879        5.24294       -1.78698
H          2.68464        2.35715       -1.57908
H          2.28036        3.88571       -2.34267
H         -0.92455        3.86700       -0.38697
H          0.50840        4.65264        0.24888
H         -0.57127        4.79091       -2.67400
H         -0.70647        6.08253       -1.42007
H          0.89846        5.67107       -2.09295
H          2.90386        3.39333        0.66214
H          4.05605        4.04885       -0.56810
H          2.64534        5.03069       -0.08957
H         -3.96377        0.49782        7.61628
C         -4.44189       -1.51895        6.98439
C         -4.53648        0.00773        6.80031
C         -3.01841       -2.05863        6.80743
H         -4.81983       -1.79091        7.99343
H         -5.10109       -2.02758        6.26437
H         -2.63274       -1.77416        5.80477
H         -2.34917       -1.63120        7.58539
C         -3.00753       -3.58665        6.91497
H         -5.60141        0.30248        6.91040
H         -3.35832       -3.91114        7.91808
H         -3.67193       -4.03201        6.14220
H         -1.97966       -3.97477        6.75485
C         -4.81460       -1.26589        3.53095
C         -4.67013       -2.14286        2.49798
C         -3.70418       -1.61373        1.68392
C         -3.34454       -0.38433        2.19665
N         -3.96426       -0.22991        3.40526
C         -2.40239        0.65601        1.57255
N         -1.85126        0.33626        0.20825
C         -2.67051        0.47725       -1.03047
H         -5.20410       -3.07333        2.36194
H         -5.49694       -1.38712        4.34708
H         -3.34207       -2.10309        0.80866
H         -1.58281        0.83189        2.28285
H         -2.93664        1.62214        1.53321
C         -3.29941        1.87633       -1.16841
C         -1.72993        0.23713       -2.22395
C         -3.79272       -0.56219       -1.14136
H         -2.52132        2.65524       -1.21968
H         -3.89111        1.93393       -2.10781
H         -3.99249        2.09853       -0.33313
H         -1.22252       -0.74967       -2.12120
H         -2.28673        0.23838       -3.18469
H         -0.95681        1.02771       -2.27580
H         -3.36355       -1.58505       -1.17245
H         -4.54022       -0.42552       -0.33610
H         -4.34612       -0.44990       -2.09340
Mg        -0.14811       -0.43522       -0.15540
C         -4.61284        3.54223        5.58954
C         -2.54995        3.12389        4.44166
O         -3.46322        2.71686        5.43968
C         -5.33665        3.93085        4.29567
C         -1.71393        4.32015        4.87560
H         -5.33337        2.96680        6.20766
H         -4.36483        4.44985        6.18326
H         -1.84690        2.27843        4.28932
H         -3.03035        3.28903        3.45730
H         -1.17114        4.08204        5.81449
H         -0.97344        4.54917        4.07989
H         -2.35614        5.21014        5.03084
H         -5.52690        3.02922        3.67767
H         -6.30703        4.40966        4.54568
H         -4.74336        4.67269        3.72033
C          1.87102        0.82780       -3.96428
C          3.15427        0.41283       -4.25020
C          3.62234       -0.25787       -3.13900
C          2.66471       -0.25088       -2.20363
N          1.51548        0.42092       -2.67147
C          2.82969       -0.85536       -0.84177
N          1.71742       -0.57290        0.09415
C          1.85911       -1.12969        1.46305
H          3.69665        0.60164       -5.17047
H          1.23136        1.38387       -4.63044
H          4.60887       -0.69738       -3.02785
H          3.76081       -0.42151       -0.42261
H          2.97188       -1.94583       -0.98623
C          2.99294       -0.42195        2.22557
C          0.55808       -0.86504        2.21473
C          2.07800       -2.66108        1.44367
H          2.81110        0.67479        2.23853
H          3.03062       -0.78203        3.27788
H          3.98271       -0.61480        1.77029
H         -0.30339       -1.34971        1.70526
H          0.59591       -1.25898        3.25259
H          0.41471        0.23058        2.26400
H          1.24377       -3.16487        0.90702
H          3.03504       -2.94273        0.96295
H          2.11037       -3.05908        2.48117
