110
speciation2362.ct
Na         0.96022       -0.04975       -0.07709
Mg         2.74582       -5.02348       -0.13900
C         -1.80156       -0.81891        1.03098
C         -1.91094       -0.55269       -1.28428
O         -1.35978       -0.04975       -0.07709
C         -3.29257       -0.61315        1.34648
C         -1.26961        0.11720       -2.48848
H         -1.57521       -1.89996        0.89504
H         -1.23779       -0.47431        1.92305
H         -1.78461       -1.65519       -1.38128
H         -2.98795       -0.28415       -1.33956
H         -0.19753       -0.15677       -2.56005
H         -1.79038       -0.22127       -3.41148
H         -1.37147        1.22054       -2.41245
H         -3.94219       -0.97469        0.52263
H         -3.56597       -1.19543        2.25110
H         -3.50728        0.46042        1.53237
H          5.25193       -5.58329       -1.15438
C          4.59570       -5.26597       -3.19497
C          4.29619       -5.64495       -1.71506
C          4.96657       -3.80860       -3.46602
H          5.42294       -5.90406       -3.58381
H          3.69393       -5.48731       -3.80563
H          5.09816       -3.66446       -4.56308
H          4.09611       -3.21374       -3.15916
C          6.26620       -3.34664       -2.79328
H          4.03803       -6.72181       -1.76397
H          6.19808       -3.42418       -1.69000
H          7.12757       -3.94858       -3.15546
H          6.46936       -2.28426       -3.05511
C          1.28162       -3.54844        2.12599
C          1.06315       -2.32524        2.74473
C          1.82462       -1.40771        2.05697
C          2.47429       -2.10837        1.06779
N          2.15498       -3.42707        1.09701
C          3.39576       -1.53001        0.05363
N          3.33022       -0.04975       -0.07709
C          4.31872        0.38884       -1.12941
H          0.43457       -2.12283        3.58603
H          0.81124       -4.47242        2.42919
H          1.90098       -0.35014        2.27951
H          3.05305       -2.00903       -0.87789
H          4.40012       -1.91282        0.33760
C          4.09633       -0.30527       -2.48583
C          4.18401        1.88167       -1.37974
C          5.79142        0.11933       -0.67777
H          3.04596       -0.20151       -2.82902
H          4.78339        0.08246       -3.26813
H          4.35672       -1.35472       -2.38536
H          4.35359        2.40323       -0.43231
H          4.95048        2.21373       -2.12172
H          3.18123        2.13616       -1.77472
H          6.02363        0.64431        0.27206
H          6.02740       -0.95560       -0.54250
H          6.51239        0.46173       -1.45180
Na         3.95735        0.85040        1.83540
Mg         7.57227        2.27025        2.37541
C          9.47182        0.27106        1.96531
C          8.42102        0.28053        4.04242
O          8.97074        1.08708        3.01414
C          9.85094        1.11010        0.75731
C          9.49138       -0.47112        4.85015
H         10.41359       -0.21976        2.29305
H          8.73395       -0.49809        1.63986
H          7.91041        0.95832        4.75328
H          7.65913       -0.42657        3.64751
H         10.22440        0.24145        5.28408
H          9.00725       -1.03362        5.67582
H         10.03225       -1.21249        4.22688
H         10.58937        1.88699        1.04716
H         10.31607        0.44978       -0.00802
H          8.95113        1.58813        0.31976
H          2.48111       -6.80927        1.77231
C          1.67780       -8.22715        0.38366
C          1.85718       -6.77095        0.85502
C          0.71714       -8.40272       -0.79956
H          2.66571       -8.67051        0.13927
H          1.24897       -8.80817        1.23302
H          0.60369       -9.49209       -1.00292
H         -0.28746       -7.99998       -0.54342
C          1.23769       -7.73557       -2.06318
H          0.85319       -6.39950        1.14980
H          1.33015       -6.64118       -1.90721
H          2.22612       -8.16370       -2.33174
H          0.53287       -7.92302       -2.89992
C          6.19960        4.08578        0.51774
C          5.02657        4.75409        0.25653
C          4.20421        4.55145        1.34725
C          4.92455        3.77216        2.22963
N          6.13775        3.48392        1.72022
C          4.43838        3.30681        3.56968
N          4.57980        1.85015        3.69293
C          4.21396        1.28502        5.02258
H          4.77343        5.30408       -0.64163
H          7.04290        4.00260       -0.15885
H          3.19327        4.91643        1.47588
H          3.38260        3.61943        3.69137
H          5.06809        3.81723        4.31765
C          2.71899        1.50863        5.34032
C          4.48783       -0.22617        4.98525
C          5.06395        1.89559        6.16814
H          2.07794        1.07824        4.54428
H          2.45616        1.02821        6.30857
H          2.48742        2.58781        5.44855
H          5.56333       -0.42148        4.79578
H          4.22015       -0.70000        5.95609
H          3.89371       -0.71069        4.18302
H          6.14693        1.75965        5.97935
H          4.86464        2.97738        6.30835
H          4.82184        1.40828        7.13811
