68
speciation16.ct
Na         1.06877       -0.31117       -0.00918
Mg        -1.48128        1.17887       -1.52846
C          0.04961       -1.00624        2.74484
C         -1.63694       -0.06410        1.34639
O         -0.24895       -0.13295        1.65123
C         -0.49680       -2.43357        2.63959
C         -2.46827        0.61274        2.44005
H          1.15306       -1.09823        2.79222
H         -0.24998       -0.52985        3.70501
H         -1.74272        0.56273        0.44083
H         -2.07098       -1.05040        1.10675
H         -2.09857        1.64063        2.63107
H         -3.52887        0.66991        2.10849
H         -2.45011        0.02822        3.38281
H         -0.15826       -2.90477        1.69743
H         -0.12221       -3.03050        3.50058
H         -1.60709       -2.45570        2.70016
C          2.36758        3.46371       -1.68740
C          3.46352        2.74828       -2.12412
C          2.97775        1.56650       -2.62633
C          1.60563        1.60750       -2.47896
N          1.23235        2.76958       -1.89865
C          0.69170        0.53899       -3.00455
N         -0.12408       -0.15161       -1.98097
C         -0.92588       -1.28830       -2.57275
H          4.49938        3.05839       -2.09739
H          2.40285        4.45538       -1.25424
H          3.55583        0.77283       -3.07900
H          1.33496       -0.18867       -3.52633
H          0.03982        1.04086       -3.74579
C         -0.03399       -2.45526       -3.05696
C         -1.88610       -1.85995       -1.51716
C         -1.80930       -0.81969       -3.76312
H          0.53840       -2.87964       -2.21816
H         -0.65859       -3.27799       -3.46835
H          0.65976       -2.16603       -3.86876
H         -2.60505       -1.08647       -1.17644
H         -2.48619       -2.69589       -1.94725
H         -1.32141       -2.26919       -0.65580
H         -2.49671       -0.00570       -3.44686
H         -1.20981       -0.47300       -4.62853
H         -2.42831       -1.66065       -4.14788
Na        -0.67369        3.59112       -1.40069
C          1.87329        2.05834        3.64783
C          2.06046        2.84627        2.53482
C          2.90251        2.15924        1.67832
C          3.19412        0.99830        2.24505
N          2.60347        0.86895        3.51534
C          4.02006       -0.07214        1.62147
N          3.33676       -0.56648        0.40841
C          3.99752       -1.71385       -0.25262
H          1.61547        3.81306        2.36137
H          1.25069        2.29642        4.49882
H          3.24518        2.48414        0.70749
H          4.11102       -0.87491        2.37953
H          5.03269        0.32307        1.38491
C          4.32255       -2.86459        0.73507
C          3.00044       -2.23330       -1.27634
C          5.28841       -1.27752       -0.97804
H          3.41561       -3.15652        1.30654
H          4.69605       -3.75639        0.18622
H          5.12370       -2.58425        1.45195
H          2.74530       -1.43105       -1.99777
H          3.40443       -3.10413       -1.83611
H          2.08225       -2.54083       -0.73557
H          5.07753       -0.47083       -1.70897
H          6.05705       -0.90996       -0.26730
H          5.73113       -2.13584       -1.53017
