96
speciation1142.ct
Na         0.64101       -1.07543       -0.73723
Mg         2.25461       -0.01060        1.22424
C         -1.14620       -3.47359       -2.19226
C         -0.67936       -4.31855       -0.04516
O         -0.31001       -3.32068       -1.03527
C         -2.66289       -3.42377       -1.96216
C         -0.38243       -5.80892       -0.42665
H         -0.95247       -2.64714       -2.87367
H         -0.86976       -4.38839       -2.77029
H         -0.16079       -4.12917        0.91642
H         -1.74381       -4.22738        0.24032
H          0.68030       -6.08517       -0.27130
H         -0.97735       -6.48617        0.22528
H         -0.65727       -6.08439       -1.46224
H         -2.91802       -2.49830       -1.41451
H         -3.18053       -3.41435       -2.94369
H         -3.04848       -4.31354       -1.42212
H          4.87237       -0.55222        2.52857
C          4.99894        1.52798        2.94639
C          4.52381        0.37214        2.02944
C          4.45095        1.33510        4.34441
H          6.11631        1.55015        3.00713
H          4.70152        2.52222        2.55155
H          3.40273        1.06670        4.26385
H          4.97773        0.48346        4.82430
C          4.53764        2.59219        5.19871
H          5.10215        0.46176        1.08280
H          5.57639        2.97660        5.25042
H          3.87308        3.38010        4.77875
H          4.17966        2.34940        6.22012
C         -2.20690       -0.84126        0.66709
C         -3.01061        0.27171        0.83584
C         -2.32039        1.34583        0.32104
C         -1.12499        0.83563       -0.14047
N         -1.06939       -0.48235        0.05117
C         -0.03046        1.61298       -0.80871
N          1.30724        1.36251       -0.23478
C          2.17693        2.63603       -0.46904
H         -3.99927        0.29236        1.28606
H         -2.46286       -1.86074        0.93934
H         -2.64430        2.37650        0.27898
H         -0.33550        2.66576       -0.77720
H          0.00711        1.31115       -1.88272
C          1.75264        3.83747        0.45249
C          3.62429        2.38835       -0.14017
C          2.17534        3.15383       -1.93519
H          1.93625        3.64570        1.52793
H          2.37875        4.73557        0.24555
H          0.70364        4.16354        0.32569
H          4.09849        1.59451       -0.74378
H          4.25099        3.31296       -0.22331
H          3.56883        2.14364        0.89701
H          2.61136        2.40614       -2.62540
H          1.17279        3.45787       -2.28400
H          2.81301        4.07176       -2.00831
Mg        -0.22963       -0.81390       -2.49338
C          0.56022        0.83826        3.63797
C          1.01825       -1.34608        4.01949
O          0.87839       -0.38005        2.94944
C          0.02427        1.87874        2.74031
C         -0.33238       -1.92694        4.51878
H         -0.24230        0.71869        4.39748
H          1.41563        1.25083        4.18210
H          1.58988       -2.24676        3.79745
H          1.58944       -0.93429        4.89591
H         -0.79097       -2.58000        3.75848
H         -0.16376       -2.51297        5.44619
H         -1.08289       -1.14803        4.79190
H         -0.93288        1.53249        2.34665
H         -0.13285        2.82531        3.29477
H          0.75994        2.00629        1.96111
C          1.26949       -2.60852       -4.21973
C          2.50083       -3.16579       -4.47807
C          3.35695       -2.67280       -3.51678
C          2.60917       -1.85803       -2.69213
N          1.33682       -1.80791       -3.13843
C          3.14039       -1.10127       -1.49483
N          2.56811       -1.55781       -0.20002
C          3.17271       -2.79032        0.36325
H          2.73453       -3.85160       -5.28072
H          0.36961       -2.78471       -4.79665
H          4.40952       -2.90181       -3.42101
H          2.84787       -0.05017       -1.66904
H          4.24407       -1.09264       -1.47943
C          4.71946       -2.77452        0.39978
C          2.64377       -2.86081        1.76019
C          2.77885       -4.06326       -0.38672
H          5.12011       -1.87441        0.87023
H          5.09291       -3.65706        0.96122
H          5.14854       -2.84429       -0.62012
H          1.53187       -2.83584        1.71284
H          2.97110       -3.76637        2.30651
H          3.01545       -1.95979        2.29063
H          1.71561       -4.12506       -0.45672
H          3.18720       -4.10937       -1.40585
H          3.12920       -4.96405        0.15984
