95
speciation1429.ct
Na         1.00642        0.15475       -0.25354
Mg         5.16078        3.22862       -1.82611
C         -1.72584       -0.84770       -1.23655
C         -1.71630        1.51725       -0.93711
O         -1.30366        0.25426       -0.44334
C         -1.35721       -0.76390       -2.72517
C         -3.22480        1.73753       -0.81421
H         -1.22083       -1.74674       -0.82534
H         -2.81329       -1.03141       -1.10663
H         -1.25376        2.28092       -0.28866
H         -1.34903        1.71697       -1.96407
H         -3.53846        1.63088        0.24610
H         -3.47435        2.76415       -1.15733
H         -3.79116        1.02007       -1.44092
H         -0.26756       -0.59050       -2.84281
H         -1.62612       -1.71794       -3.22496
H         -1.92426        0.03872       -3.24053
H          7.54277        3.38814       -0.04023
C          9.14876        3.06315       -1.45037
C          7.60739        2.95228       -1.05510
C          9.74516        4.45154       -1.71496
H          9.76860        2.58347       -0.65858
H          9.38271        2.46574       -2.33510
H         10.79905        4.31426       -2.08658
H          9.17542        4.97379       -2.51232
C          9.82943        5.29213       -0.45197
H          7.54536        1.85052       -0.98325
H          8.81797        5.46816       -0.04148
H         10.45865        4.77333        0.30622
H         10.30801        6.26899       -0.68522
C          4.16514       -1.02714       -0.04279
C          5.46739       -0.64052        0.17491
C          5.44138        0.72821        0.30404
C          4.13012        1.11676        0.11060
N          3.36629        0.05310       -0.05965
C          3.55699        2.47955        0.11713
N          2.93808        2.78157       -1.19939
C          2.33217        4.15246       -1.22842
H          6.33124       -1.28459        0.25641
H          3.81383       -2.04515       -0.15739
H          6.26212        1.37133        0.52836
H          2.81616        2.50074        0.93936
H          4.38902        3.17799        0.33103
C          3.38394        5.26148       -1.02995
C          1.69253        4.35154       -2.60099
C          1.25524        4.35207       -0.14348
H          4.13593        5.17925       -1.80833
H          2.92909        6.27330       -1.11826
H          3.88222        5.22420       -0.04299
H          0.88626        3.60234       -2.77261
H          1.24528        5.36759       -2.69004
H          2.44990        4.24048       -3.41050
H          0.47334        3.58346       -0.23227
H          1.67881        4.32001        0.88267
H          0.78302        5.35423       -0.24317
Na         4.24808        2.38999       -3.13522
Mg         4.63623        0.67768       -6.23982
H          2.82251       -0.21060       -7.94943
C          3.26138       -1.85471       -6.56831
C          3.69122       -0.67623       -7.43794
C          2.27939       -1.46448       -5.45117
H          2.77907       -2.61643       -7.21729
H          4.16866       -2.31037       -6.11318
H          1.35367       -1.04072       -5.89340
H          2.01200       -2.38839       -4.89805
C          2.86759       -0.46955       -4.45093
H          4.41543       -1.03524       -8.19924
H          3.79291       -0.87834       -3.99305
H          3.08514        0.49995       -4.93958
H          2.13457       -0.27944       -3.63984
C          6.33752        5.62059       -2.94979
C          6.66980        6.39530       -4.03189
C          6.39298        5.64573       -5.14616
C          5.89781        4.43505       -4.70212
N          5.83415        4.42617       -3.34378
C          5.46269        3.33938       -5.65306
N          5.55808        1.99840       -5.07106
C          6.87506        1.32476       -5.05254
H          7.05751        7.39999       -4.00711
H          6.40357        5.92631       -1.91230
H          6.51489        5.95929       -6.17377
H          6.00849        3.41207       -6.61875
H          4.40103        3.52884       -5.90887
C          7.86351        2.09959       -4.24069
C          6.66959       -0.05390       -4.39238
C          7.46713        1.11129       -6.46123
H          7.37168        2.23113       -3.28121
H          8.80577        1.52022       -4.14819
H          8.10658        3.09253       -4.67324
H          5.98263       -0.67810       -4.99983
H          7.63305       -0.60119       -4.29398
H          6.23235        0.05928       -3.37449
H          6.77539        0.52373       -7.09775
H          7.70044        2.07261       -6.96113
H          8.42918        0.55586       -6.38428
