110
speciation2578.ct
Na         1.21454       -0.27149       -0.66392
Mg         4.45034        0.63930       -1.80067
C          2.49202        2.53849       -2.37801
C          4.57277        3.44318       -2.97065
O          3.87629        2.50655       -2.14271
C          1.92442        2.35950       -3.77790
C          4.23458        4.94115       -2.65724
H          2.06360        1.75448       -1.72626
H          2.15899        3.53528       -2.10315
H          5.65569        3.32603       -2.78139
H          4.40476        3.24370       -4.04810
H          4.38505        5.18660       -1.60102
H          4.88020        5.60103       -3.27401
H          3.19197        5.21319       -2.89965
H          2.26994        1.44442       -4.25895
H          0.81687        2.29692       -3.67003
H          2.13972        3.24216       -4.41271
H          6.95469        1.64182       -1.84994
C          7.51649       -0.27768       -1.06032
C          6.52535        0.87786       -1.17102
C          8.92852        0.05252       -0.57289
H          7.17455       -0.96431       -0.28854
H          7.57136       -0.78588       -2.04502
H          9.43732       -0.93250       -0.45920
H          9.50161        0.65131       -1.31065
C          8.93958        0.74787        0.79117
H          6.39612        1.27713       -0.15527
H          8.64560        1.81064        0.67574
H          8.24175        0.25248        1.50142
H          9.96191        0.70609        1.22049
C          5.60869        1.12288        3.56132
C          5.74391       -0.23965        3.66973
C          4.78126       -0.79704        2.87297
C          4.12158        0.28806        2.22445
N          4.56433        1.44285        2.72508
C          3.03209        0.22750        1.21875
N          3.29125       -0.39024       -0.14291
C          3.47739       -1.87586       -0.08732
H          6.43911       -0.77689        4.31395
H          6.18289        1.79485        4.14808
H          4.61423       -1.85364        2.80886
H          2.71468        1.27258        1.04234
H          2.13324       -0.23076        1.69779
C          2.56550       -2.62308        0.89541
C          3.13002       -2.42943       -1.46063
C          4.96800       -2.22689        0.09784
H          1.50503       -2.44662        0.65025
H          2.75885       -3.71544        0.84199
H          2.70433       -2.35152        1.97157
H          3.80847       -1.95471       -2.14113
H          3.33537       -3.51319       -1.51560
H          2.10365       -2.18513       -1.76256
H          5.48927       -1.89347       -0.80407
H          5.51607       -1.74421        0.91345
H          5.13851       -3.30970        0.19835
Na         4.14644        6.13488        0.67523
Mg         3.65639        3.29185        2.45040
C          0.64843        3.80894        2.49119
C          1.65916        3.86028        0.38800
O          1.75536        3.37514        1.71701
C         -0.49596        2.76649        2.48587
C          0.40679        3.29226       -0.36107
H          0.98983        3.93897        3.53378
H          0.26535        4.80961        2.17894
H          1.66135        4.97090        0.33838
H          2.61372        3.54446       -0.07137
H         -0.50860        3.78516        0.00418
H          0.28997        3.53380       -1.43186
H          0.39103        2.18728       -0.26245
H         -0.13019        1.80559        2.88836
H         -1.35669        3.16093        3.06180
H         -0.95026        2.49434        1.52182
H          4.65634       -1.39066       -3.84335
C          4.86035        0.13515       -5.21891
C          4.25056       -0.36605       -3.90179
C          4.50579       -0.81379       -6.38754
H          4.49948        1.16156       -5.45186
H          5.96201        0.15889       -5.08962
H          4.80735       -1.85681       -6.13815
H          3.40273       -0.81187       -6.56954
C          5.22287       -0.43268       -7.67862
H          3.15135       -0.46340       -4.04683
H          4.93047        0.57809       -8.01981
H          6.32341       -0.48179       -7.54720
H          4.94605       -1.16200       -8.49150
C          3.67522        2.70158        5.31415
C          4.82538        2.94028        6.05831
C          5.46807        4.03821        5.48844
C          4.68660        4.41402        4.42493
N          3.70214        3.55633        4.28510
C          4.86061        5.46564        3.38116
N          5.05907        4.82765        2.07917
C          6.50411        4.78390        1.66150
H          5.22133        2.30678        6.83813
H          3.03930        1.83140        5.39550
H          6.44498        4.43084        5.73034
H          5.57405        6.24748        3.66202
H          3.87533        5.98661        3.32166
C          7.44516        3.98174        2.59582
C          6.55201        4.12626        0.29774
C          7.10959        6.20559        1.51965
H          7.15802        2.92894        2.64749
H          8.47289        3.98023        2.17294
H          7.53391        4.43789        3.59828
H          6.04709        4.75773       -0.43986
H          7.59180        3.95835       -0.06102
H          5.99802        3.18502        0.37756
H          6.50023        6.82278        0.82853
H          7.19646        6.73694        2.48567
H          8.14637        6.15065        1.12548
