83
speciation525.ct
Na         2.20664        1.51150        3.28564
Mg         1.02813        2.00172       -1.79976
C          2.17866        2.15416        6.17862
C         -0.03296        2.17849        5.43702
O          1.30191        2.57663        5.13749
C          3.63254        2.48211        5.85701
C         -0.23991        0.66388        5.61817
H          1.91661        2.65004        7.13882
H          2.16180        1.05012        6.30251
H         -0.41899        2.71906        6.33239
H         -0.66482        2.50897        4.59409
H          0.08768        0.33878        6.63068
H         -1.31917        0.41915        5.53515
H          0.32126        0.09659        4.84711
H          3.78240        3.57571        5.76210
H          4.27670        2.10379        6.68264
H          3.95217        1.97621        4.92102
C          3.30687       -0.88757        1.15323
C          3.81905       -1.07075       -0.11654
C          3.95312        0.18330       -0.68171
C          3.51284        1.08290        0.26926
N          3.13087        0.42341        1.39388
C          3.56436        2.59157        0.18768
N          2.81509        3.32658       -0.89448
C          3.12203        4.86037       -0.73373
H          4.07570       -2.01798       -0.57242
H          3.07566       -1.66923        1.86465
H          4.34969        0.40350       -1.66257
H          3.23159        2.92600        1.18301
H          4.64387        2.78710        0.08960
C          4.62154        5.14171       -1.00191
C          2.33993        5.84122       -1.65261
C          2.82061        5.46983        0.68551
H          4.92476        4.71974       -1.98164
H          4.82143        6.23700       -1.01851
H          5.27751        4.74964       -0.20189
H          1.23988        5.69589       -1.59393
H          2.48795        6.90120       -1.35197
H          2.76096        5.91597       -2.66173
H          1.74823        5.59756        0.89989
H          3.31477        4.97117        1.53317
H          3.19050        6.51925        0.73311
Na         3.33053        2.36822       -2.62766
C          0.12965        3.62907        0.57486
C         -1.72127        2.70880       -0.48294
O         -0.32492        2.88843       -0.54885
C         -0.21496        3.11859        1.97428
C         -2.49991        4.02159       -0.62104
H          1.18675        3.54003        0.60632
H         -0.13617        4.69842        0.45427
H         -1.99468        2.09581       -1.30105
H         -2.02937        2.11769        0.40405
H         -2.18217        4.55432       -1.54176
H         -3.58496        3.80527       -0.67227
H         -2.33682        4.68053        0.25733
H          0.15106        2.07948        2.10741
H          0.30803        3.77027        2.71224
H         -1.29645        3.18522        2.19489
C         -1.86510        0.77398       -3.38700
C         -2.02471        0.11932       -4.58977
C         -0.77448       -0.10952       -5.08274
C          0.08734        0.41034       -4.14829
N         -0.54274        0.99400       -3.09039
C          1.52909        0.58015       -4.28948
N          1.75485        1.96164       -3.84171
C          1.30625        3.07152       -4.72316
H         -2.96112       -0.09339       -5.09464
H         -2.73171        1.12353       -2.85269
H         -0.52112       -0.54482       -6.03948
H          1.90377        0.39220       -5.31745
H          2.03143       -0.10366       -3.58467
C         -0.22946        3.20639       -4.94254
C          1.70354        4.25911       -3.97223
C          2.01376        3.08076       -6.09252
H         -0.77928        3.25139       -3.97712
H         -0.46424        4.16278       -5.45832
H         -0.63817        2.42077       -5.59929
H          2.80801        4.21461       -3.84395
H          1.40588        5.21258       -4.45248
H          1.18663        4.14069       -2.99706
H          3.11478        3.10611       -5.96894
H          1.72887        2.20194       -6.70288
H          1.70511        3.99054       -6.66034
