96
speciation1298.ct
Na         0.64767        5.68271        1.95442
Mg        -0.12897        5.80185       -5.92781
C          1.04542        8.54490        1.71047
C         -1.02672        8.13031        2.73242
O         -0.04544        7.64315        1.83692
C          1.85739        8.74872        2.99903
C         -2.21410        7.18466        2.75049
H          1.72881        8.12141        0.94520
H          0.70491        9.52316        1.30420
H         -0.64702        8.21599        3.77226
H         -1.40264        9.11773        2.37710
H         -1.90238        6.19791        3.15346
H         -3.01284        7.60344        3.39903
H         -2.61428        7.05542        1.72281
H          2.19498        7.77299        3.40631
H          2.75047        9.37179        2.77684
H          1.27317        9.29139        3.77046
H         -1.27877        7.00712       -7.96945
C         -3.08545        6.32732       -7.02337
C         -1.62638        6.09151       -7.44489
C         -3.75905        5.09254       -6.40996
H         -3.13199        7.17893       -6.31684
H         -3.67200        6.60252       -7.93156
H         -4.81496        5.35388       -6.17663
H         -3.76662        4.25848       -7.14533
C         -3.08085        4.63404       -5.12498
H         -1.59041        5.25416       -8.17391
H         -2.03906        4.31104       -5.33072
H         -3.07513        5.45663       -4.37960
H         -3.64228        3.77309       -4.70287
C          1.37439        2.97278        3.43913
C          2.22352        1.88538        3.40001
C          2.94960        1.99275        2.23148
C          2.48772        3.12429        1.57723
N          1.55541        3.74574        2.34403
C          2.94037        3.61879        0.21436
N          2.84414        2.59745       -0.88989
C          1.52941        1.96389       -1.13455
H          2.30744        1.10517        4.14772
H          0.67706        3.19455        4.23743
H          3.71057        1.30808        1.88601
H          2.36369        4.52762       -0.04374
H          3.99871        3.91719        0.33252
C          0.43678        3.01174       -1.41311
C          1.71915        1.09141       -2.37796
C          1.06504        1.01179       -0.01205
H          0.73482        3.67142       -2.25042
H         -0.51975        2.51757       -1.68306
H          0.24967        3.63648       -0.51391
H          2.53600        0.35207       -2.21164
H          0.78865        0.55365       -2.65006
H          1.99001        1.72961       -3.22634
H          1.86638        0.28523        0.24126
H          0.72852        1.54563        0.89037
H          0.17104        0.44011       -0.33749
Mg         3.80424        2.80189       -2.81975
C          6.52733        1.91456       -2.86836
C          6.27251        3.96071       -1.62405
O          5.68512        2.99622       -2.48829
C          7.34571        1.26515       -1.73905
C          7.21839        4.88890       -2.38060
H          5.86361        1.11932       -3.26098
H          7.19285        2.22261       -3.70166
H          5.48077        4.58787       -1.17546
H          6.76370        3.49889       -0.74542
H          7.99389        4.31032       -2.92248
H          7.72863        5.56565       -1.66250
H          6.64345        5.50022       -3.10695
H          6.68269        0.96677       -0.89975
H          7.86520        0.36395       -2.12612
H          8.13944        1.94948       -1.36956
C          1.07365        6.30364       -3.24603
C          2.16092        6.06631       -2.42601
C          3.01497        5.27314       -3.14712
C          2.41546        5.05525       -4.36363
N          1.22825        5.70022       -4.43948
C          3.01445        4.22147       -5.43383
N          3.17532        2.84540       -4.93102
C          3.52995        1.84400       -5.99947
H          2.32383        6.42478       -1.42509
H          0.21382        6.89700       -2.97129
H          3.96945        4.88979       -2.83329
H          4.00011        4.64307       -5.72281
H          2.32209        4.27091       -6.29634
C          4.97452        2.03665       -6.50879
C          3.38333        0.43176       -5.41385
C          2.58842        1.90675       -7.24260
H          5.70805        1.95249       -5.68282
H          5.22332        1.26525       -7.27221
H          5.09731        3.02404       -7.00111
H          2.32415        0.23905       -5.13960
H          3.68540       -0.34098       -6.15531
H          4.01315        0.31559       -4.50957
H          1.52296        1.79545       -6.94813
H          2.70753        2.84264       -7.82738
H          2.82925        1.08987       -7.96084
