80
speciation948.ct
Na         6.95335        4.50631       -3.98557
Mg         2.34648        4.82376       -0.98341
H          3.84958        5.40211       -3.07749
C          3.37038        7.25983       -3.03446
C          2.90417        5.85248       -2.86744
C          4.59531        7.52412       -2.14842
H          3.65156        7.44706       -4.10049
H          2.52242        7.90409       -2.78527
H          4.33721        7.23803       -1.10495
H          5.47642        6.90222       -2.45584
C          4.94634        8.99591       -2.29232
H          2.18292        5.62437       -3.68582
H          5.26182        9.17527       -3.34259
H          4.04229        9.59712       -2.05968
H          5.76844        9.32265       -1.62717
C          4.36636        4.18306       -5.46406
C          3.04837        3.79618       -5.49473
C          2.78689        3.17798       -4.28252
C          3.96821        3.17781       -3.55490
N          4.93181        3.81486       -4.29536
C          4.15535        2.74698       -2.08648
N          2.94143        2.77506       -1.20053
C          3.18082        2.17018        0.17884
H          2.34311        3.99741       -6.29254
H          4.87527        4.75297       -6.23961
H          1.82278        2.83490       -3.95572
H          4.56259        1.72619       -2.14430
H          4.90618        3.43447       -1.65087
C          4.32177        2.93319        0.91453
C          1.93234        2.28348        1.09267
C          3.46651        0.63449        0.15730
H          4.10718        4.00024        0.92261
H          4.45917        2.58298        1.96203
H          5.30041        2.91089        0.40961
H          1.07403        1.68747        0.73247
H          2.18194        1.91075        2.12208
H          1.59422        3.30556        1.22405
H          2.73416        0.11879       -0.50486
H          4.50161        0.35736       -0.11724
H          3.32917        0.18991        1.17518
Na        -0.64504        3.44902        2.83516
Mg         1.64161        1.69367       -2.21382
H         -0.42218        1.29213       -3.79386
C         -0.62699       -0.35122       -2.39987
C          0.22831        0.59046       -3.22858
C         -1.48387        0.40755       -1.38252
H         -1.28718       -0.90755       -3.10304
H          0.03157       -1.07796       -1.87738
H         -0.83963        0.98013       -0.67760
H         -2.15662        1.11924       -1.91208
C         -2.33929       -0.58327       -0.60154
H          0.81083       -0.00676       -3.95820
H         -2.97674       -1.14665       -1.31444
H         -1.69045       -1.30130       -0.05294
H         -2.99154       -0.04874        0.12324
C          0.23101        5.52224        4.77081
C          0.97094        6.63774        5.08708
C          1.72739        6.93667        3.97842
C          1.43590        5.96420        3.03341
N          0.49288        5.11961        3.51616
C          2.08069        5.86994        1.67654
N          1.18377        5.86127        0.46743
C          0.44068        7.16486        0.31047
H          0.95385        7.17696        6.02247
H         -0.47596        5.02582        5.42003
H          2.40638        7.77385        3.88539
H          2.61224        4.95325        1.77219
H          2.91962        6.57773        1.57384
C          1.47318        8.32000        0.18254
C         -0.44060        7.29980       -0.96843
C         -0.64851        7.28116        1.42851
H          2.00819        8.15786       -0.76576
H          0.99436        9.31221        0.15338
H          2.29851        8.37989        0.90677
H         -1.18564        6.48580       -1.08076
H         -1.03605        8.24679       -0.87059
H          0.12103        7.45804       -1.90779
H         -1.34818        6.41360        1.32713
H         -0.35953        7.31592        2.47277
H         -1.23924        8.20845        1.33625
