80
speciation972.ct
Na         6.04247        1.71457        3.31079
Mg         1.61791        2.11665       -1.47334
H         -0.40854        0.50412       -0.25873
C         -1.00593        2.43482        0.52612
C          0.08196        1.45468        0.03458
C         -2.07553        2.62553       -0.53232
H         -1.48582        2.02967        1.44917
H         -0.58945        3.43014        0.77804
H         -1.60007        2.99497       -1.46299
H         -2.56569        1.64790       -0.72416
C         -3.12613        3.63581       -0.07630
H          0.69558        1.15472        0.90831
H         -3.59848        3.31383        0.87659
H         -2.66269        4.63483        0.07594
H         -3.91074        3.72121       -0.85656
C          3.13329        2.37174        4.02736
C          1.89701        2.75420        3.56645
C          2.02920        2.87483        2.21759
C          3.31777        2.56368        1.88314
N          4.00553        2.25193        3.00205
C          3.85881        2.60580        0.47062
N          3.02310        3.40729       -0.46959
C          3.17222        4.92454       -0.33620
H          0.99315        2.94034        4.13188
H          3.37902        2.20131        5.06344
H          1.28689        3.17737        1.53481
H          4.92668        2.89925        0.46042
H          3.88447        1.54956        0.11721
C          4.65105        5.36605       -0.42998
C          2.41145        5.70102       -1.42109
C          2.58644        5.48017        0.98143
H          5.10297        5.01985       -1.38385
H          4.72798        6.47441       -0.38967
H          5.25310        4.99278        0.41929
H          1.33635        5.42769       -1.42282
H          2.43318        6.79568       -1.22448
H          2.91618        5.64538       -2.39332
H          1.49881        5.26887        1.05086
H          3.13461        5.12503        1.87108
H          2.68106        6.58609        1.01990
Na         3.10866        2.27549       -2.25032
Mg         4.64179       -0.53911       -3.39825
H          6.75706       -1.52018       -4.47943
C          7.27700        0.49320       -3.87027
C          6.32441       -0.49737       -4.51036
C          7.58710        0.13549       -2.40714
H          8.22550        0.50080       -4.45009
H          6.82219        1.50468       -3.91929
H          8.09873       -0.85045       -2.35145
H          8.27650        0.91035       -2.01205
C          6.34341        0.09569       -1.51557
H          6.10900       -0.22623       -5.56579
H          5.77244        1.04510       -1.59889
H          5.69619       -0.76129       -1.78311
H          6.64317       -0.05397       -0.45859
C          2.76785       -2.03344       -1.79828
C          1.42739       -2.31672       -1.64913
C          0.75066       -1.48620       -2.51406
C          1.71001       -0.71255       -3.13183
N          2.93406       -1.06669       -2.71562
C          1.45364        0.32221       -4.16362
N          1.62583        1.67932       -3.60759
C          1.29232        2.77761       -4.54617
H          0.99588       -3.06921       -1.00366
H          3.58438       -2.52954       -1.29180
H         -0.31715       -1.45532       -2.68306
H          0.40638        0.19565       -4.49823
H          2.12383        0.13861       -5.03119
C         -0.18780        2.75282       -4.97206
C          1.53060        4.03782       -3.78595
C          2.21836        2.80943       -5.78894
H         -0.84365        2.74044       -4.07474
H         -0.42745        3.66043       -5.56838
H         -0.41878        1.87746       -5.60797
H          2.60466        4.01556       -3.52436
H          1.31343        4.95399       -4.37454
H          0.88624        4.00224       -2.88629
H          3.28711        2.89736       -5.48994
H          2.10116        1.91253       -6.42611
H          1.97574        3.69600       -6.41827
