110
speciation2085.ct
Na         0.94892        0.06056        0.06102
Mg         5.45620       -3.49050       -4.05292
C         -1.85160       -1.09991        0.71749
C         -1.96864        0.25349       -1.20714
O         -1.37108        0.06056        0.06102
C         -1.52961       -2.41601       -0.00287
C         -1.38497        1.49579       -1.86450
H         -1.35130       -1.13319        1.70839
H         -2.94075       -1.01493        0.92624
H         -1.77775       -0.59308       -1.89807
H         -3.06240        0.41884       -1.08560
H         -0.30229        1.35090       -2.05438
H         -1.89298        1.67674       -2.83622
H         -1.52449        2.38349       -1.21350
H         -0.44378       -2.48058       -0.22491
H         -1.81596       -3.26906        0.64745
H         -2.11058       -2.51874       -0.94209
H          2.78874       -3.61647       -5.20351
C          3.57431       -2.59729       -6.76883
C          3.57809       -2.86375       -5.26614
C          2.13094       -2.27746       -7.24757
H          4.25634       -1.75879       -7.01616
H          3.92271       -3.51769       -7.28372
H          1.44957       -3.12136       -6.98164
H          1.75559       -1.36303       -6.74547
C          2.05720       -2.09116       -8.75614
H          3.15439       -1.97725       -4.75505
H          2.40640       -3.01045       -9.27140
H          2.68280       -1.22753       -9.06493
H          1.00239       -1.90024       -9.05389
C          2.67563        2.38659       -3.93567
C          2.03677        1.16752       -3.95525
C          2.29560        0.55822       -2.73660
C          3.09181        1.44335       -2.02961
N          3.31601        2.55252       -2.76553
C          3.68817        1.29775       -0.66381
N          3.31892        0.06056        0.06102
C          3.81847        0.04087        1.46810
H          1.45260        0.76451       -4.77282
H          2.68073        3.11811       -4.73503
H          1.95184       -0.41361       -2.41774
H          3.32464        2.18659       -0.11355
H          4.78753        1.36069       -0.79206
C          3.14191        1.14401        2.31964
C          3.47733       -1.32363        2.06828
C          5.35963        0.22347        1.54897
H          2.03673        1.05850        2.25894
H          3.44719        1.05464        3.38459
H          3.43906        2.16459        2.00678
H          3.99157       -2.13322        1.50680
H          3.81132       -1.38063        3.12823
H          2.38208       -1.50686        2.03216
H          5.88428       -0.55929        0.96016
H          5.68528        1.22054        1.19157
H          5.69911        0.15379        2.60593
Na         4.10891       -1.92832       -0.95741
Mg         4.37397        4.10111       -2.22264
C          8.22608       -2.33498       -4.17006
C          6.58958       -0.72283       -3.82312
O          6.82548       -2.06552       -4.21077
C          8.79261       -2.54718       -2.76973
C          5.14269       -0.36185       -3.97886
H          8.44588       -3.23670       -4.76261
H          8.79722       -1.52851       -4.68678
H          6.85577       -0.55005       -2.76075
H          7.14362       -0.02059       -4.49001
H          4.53806       -1.00336       -3.30596
H          5.02197        0.69776       -3.69049
H          4.83243       -0.46221       -5.03737
H          8.37017       -3.46619       -2.34179
H          9.88980       -2.69391       -2.83522
H          8.60976       -1.67968       -2.10386
H          7.30534       -5.39373       -4.36932
C          6.97620       -5.10305       -6.45282
C          6.43122       -5.20886       -5.01772
C          7.75209       -6.37579       -6.86222
H          6.13543       -4.93135       -7.15549
H          7.67061       -4.24299       -6.53002
H          8.59894       -6.54693       -6.16038
H          7.07811       -7.25833       -6.81978
C          8.32536       -6.26318       -8.27497
H          5.74622       -6.07721       -4.96587
H          7.50950       -6.11152       -9.01351
H          9.03847       -5.41210       -8.34043
H          8.87160       -7.19416       -8.53912
C          7.93299       -7.22553       -1.61459
C          7.46982       -7.45157       -0.34077
C          6.72802       -6.34245        0.03096
C          6.71936       -5.46715       -0.98970
N          7.48319       -5.96981       -2.06132
C          5.98593       -4.12612       -0.97285
N          4.89890       -3.91719       -1.97583
C          3.74765       -4.90384       -1.80467
H          7.65228       -8.34486        0.24961
H          8.54521       -7.91013       -2.19079
H          6.21829       -6.21868        0.97585
H          6.70633       -3.30104       -1.06299
H          5.56932       -3.98193        0.04213
C          3.10451       -4.81143       -0.40137
C          2.64806       -4.57350       -2.80148
C          4.09472       -6.39681       -2.09870
H          2.76491       -3.77621       -0.19091
H          2.21388       -5.47797       -0.34147
H          3.78933       -5.15347        0.39814
H          3.01780       -4.92174       -3.77238
H          1.72954       -5.17773       -2.62963
H          2.37198       -3.49831       -2.77503
H          4.53804       -6.52227       -3.10565
H          4.73967       -6.88043       -1.36029
H          3.17020       -7.01721       -2.07115
