96
speciation1613.ct
Na         1.71497        0.89417       -0.44426
Mg         1.27324       -2.98496       -0.07981
C         -0.67597       -1.37409       -0.09154
C         -1.51576       -3.10814        1.25560
O         -0.67877       -2.76210        0.13568
C         -0.27875       -0.51279        1.12336
C         -3.00312       -2.82467        0.99113
H          0.10963       -1.18824       -0.80855
H         -1.59509       -1.00997       -0.57928
H         -1.43949       -4.18879        1.45052
H         -1.20506       -2.60328        2.19360
H         -3.36485       -3.44513        0.14574
H         -3.59711       -3.06969        1.89565
H         -3.19355       -1.75371        0.76693
H          0.65016       -0.93123        1.57650
H         -0.09383        0.52858        0.81218
H         -1.07324       -0.47370        1.88682
H          2.39544       -4.01128        2.15864
C          1.07606       -5.64830        1.80469
C          1.39640       -4.15011        1.75203
C          1.19259       -6.16757        3.25183
H          0.04561       -5.82707        1.43822
H          1.77918       -6.20244        1.15071
H          2.22599       -6.00246        3.62855
H          0.48609       -5.61165        3.90741
C          0.86997       -7.65560        3.34899
H          0.74623       -3.61861        2.46909
H         -0.16871       -7.84874        3.00654
H          1.57834       -8.24534        2.73024
H          0.96079       -7.98743        4.40597
C          6.45739       -1.32239       -2.78794
C          6.88297       -0.25745       -3.55868
C          6.17144        0.84829       -3.13231
C          5.35083        0.40804       -2.11488
N          5.52371       -0.90470       -1.91240
C          4.35084        1.24006       -1.35303
N          3.79570        0.53678       -0.15536
C          4.02700        1.32745        1.10546
H          7.60493       -0.28763       -4.35661
H          6.79127       -2.34820       -2.88120
H          6.23234        1.85630       -3.52491
H          3.52422        1.52747       -2.03500
H          4.88038        2.17476       -1.10649
C          3.41829        2.76304        1.03286
C          3.32482        0.63670        2.28293
C          5.52720        1.44220        1.42207
H          2.32317        2.72811        0.85708
H          3.58866        3.30329        1.99013
H          3.86211        3.40611        0.24933
H          3.70526       -0.38389        2.41648
H          3.50128        1.20087        3.22739
H          2.22957        0.60597        2.12404
H          5.95463        0.44751        1.44227
H          6.08860        2.02841        0.66993
H          5.69881        1.91296        2.41200
Mg         4.31638       -1.46191       -0.63629
C          5.04282       -3.56497        1.44757
C          6.73871       -1.93917        1.14125
O          5.52021       -2.49827        0.64777
C          4.75072       -3.21924        2.91289
C          7.90790       -2.92562        1.31379
H          4.11538       -3.90383        0.99354
H          5.71712       -4.44456        1.37354
H          7.09101       -1.18125        0.41132
H          6.57105       -1.43891        2.11573
H          8.16977       -3.40475        0.34966
H          8.79618       -2.37039        1.68942
H          7.68734       -3.70456        2.07334
H          3.98847       -2.42534        2.97269
H          4.34564       -4.11871        3.42251
H          5.65909       -2.91711        3.46844
C          3.68714       -0.06500       -5.42943
C          2.59740       -0.62166       -6.05201
C          1.83510       -1.24218       -5.06801
C          2.44681       -1.08532       -3.88167
N          3.62368       -0.34517       -4.05867
C          1.90528       -1.55251       -2.52929
N          2.67089       -2.52631       -1.67096
C          2.90124       -3.85145       -2.37166
H          2.38974       -0.56313       -7.11216
H          4.47347        0.50734       -5.90904
H          0.90128       -1.75642       -5.23794
H          0.88637       -1.94690       -2.71049
H          1.79352       -0.62449       -1.95922
C          3.79843       -3.75745       -3.63156
C          3.61983       -4.80109       -1.41424
C          1.56508       -4.53700       -2.76860
H          4.75172       -3.25926       -3.39783
H          4.03255       -4.77244       -4.01992
H          3.32162       -3.26406       -4.48875
H          2.99922       -4.97338       -0.51603
H          3.79045       -5.79297       -1.88915
H          4.61194       -4.38670       -1.14704
H          0.94097       -4.73928       -1.87241
H          0.97124       -3.94389       -3.49172
H          1.76327       -5.50949       -3.27442
