96
speciation1733.ct
Na         1.55194        1.77670        0.42726
Mg         0.28638        4.62237        5.48137
C         -1.12727        6.38318        7.95611
C         -2.65902        5.11143        6.85756
O         -1.28492        5.49672        6.82681
C         -1.25155        5.65389        9.32693
C         -3.08888        4.45093        5.61432
H         -0.19806        6.95445        7.89023
H         -1.84381        7.24048        7.94196
H         -2.86023        4.39060        7.68034
H         -3.34117        5.99811        6.94190
H         -2.49639        3.51531        5.53292
H         -4.16735        4.19430        5.65959
H         -2.93222        5.19176        4.80150
H         -0.70912        4.69003        9.36083
H         -0.86717        6.29374       10.14611
H         -2.30917        5.41448        9.55908
H          6.62940        0.15526        1.25248
C          6.28154       -1.24421       -0.37534
C          6.00854       -0.73746        1.03783
C          5.95558       -0.15165       -1.39987
H          7.35384       -1.52608       -0.45015
H          5.65782       -2.14279       -0.57841
H          4.87478        0.10217       -1.33982
H          6.55101        0.75961       -1.17388
C          6.28417       -0.59791       -2.82163
H          6.21867       -1.52999        1.78686
H          7.36664       -0.83252       -2.90938
H          5.69057       -1.49497       -3.09727
H          6.04295        0.22222       -3.53114
C         -0.63756        0.05240       -1.54485
C         -0.78948       -1.29937       -1.84513
C          0.13617       -1.97709       -1.09787
C          0.79512       -1.02317       -0.35276
N          0.36467        0.21852       -0.64563
C          1.84306       -1.29941        0.65181
N          2.17456       -0.06022        1.36507
C          1.83997        0.00944        2.80325
H         -1.49909       -1.73901       -2.54150
H         -1.22818        0.84653       -1.97407
H          0.31323       -3.05280       -1.08853
H          2.74056       -1.65975        0.10414
H          1.52489       -2.09753        1.33896
C          2.82391       -0.84122        3.63077
C          2.01363        1.46386        3.20439
C          0.37795       -0.36835        3.12681
H          3.86657       -0.53231        3.41348
H          2.64538       -0.68889        4.72047
H          2.71345       -1.92096        3.39702
H          1.31286        2.08843        2.62815
H          1.77531        1.61974        4.27273
H          3.04961        1.77792        2.98470
H         -0.32343        0.22524        2.50127
H          0.18350       -1.44622        2.97355
H          0.15914       -0.15258        4.19983
Mg         4.07685       -0.20874        1.18590
C          3.45684        3.47155        5.49741
C          2.60762        4.34492        7.42461
O          2.28466        4.03483        6.09043
C          3.84940        2.11087        6.12078
C          1.48756        5.10739        7.92358
H          3.29016        3.33753        4.43633
H          4.32852        4.16944        5.54111
H          2.66684        3.43301        8.05549
H          3.51263        4.99326        7.52169
H          0.61786        4.44185        7.74970
H          1.59824        5.35641        8.99727
H          1.46845        6.01041        7.28251
H          2.97083        1.43729        6.16995
H          4.65612        1.62572        5.53502
H          4.24371        2.23458        7.15276
C         -1.45527        3.95965        2.90102
C         -1.57610        3.89585        1.54114
C         -0.35784        4.20052        1.05260
C          0.46053        4.43871        2.14603
N         -0.22473        4.32765        3.33030
C          1.91019        4.69290        1.93974
N          2.35462        3.90511        0.75928
C          3.75862        4.10825        0.32178
H         -2.45400        3.63303        0.96595
H         -2.30645        3.71919        3.48089
H         -0.08239        4.20985        0.00544
H          2.46147        4.41364        2.84543
H          2.03281        5.77630        1.75965
C          4.75159        3.58682        1.37782
C          3.95628        3.31545       -0.98075
C          4.06745        5.59504        0.02638
H          4.57514        2.51509        1.58821
H          5.79667        3.68870        1.01376
H          4.67298        4.16724        2.32111
H          3.28640        3.70533       -1.77740
H          5.00640        3.39618       -1.33898
H          3.72149        2.24177       -0.82301
H          3.36599        5.99742       -0.73557
H          4.00646        6.22241        0.93842
H          5.10397        5.70428       -0.36175
