83
speciation688.ct
Na         4.70887        3.14231        3.22125
Mg         2.46101        4.75092       -1.14338
C          1.17758        5.02044        1.18168
C          1.93758        7.15009        0.51035
O          2.22123        5.74618        0.55203
C         -0.21941        5.22998        0.55942
C          1.90069        7.81726        1.90255
H          1.46449        3.96478        1.09178
H          1.16461        5.16917        2.27598
H          2.71906        7.67352       -0.07934
H          0.99673        7.35620       -0.03066
H          2.92629        7.95288        2.30495
H          1.41426        8.81270        1.82445
H          1.30603        7.25723        2.65024
H         -0.17226        5.09534       -0.54355
H         -0.93575        4.50192        0.98966
H         -0.62856        6.23641        0.78041
C          6.51603        4.28989        0.98729
C          6.72198        4.36166       -0.37217
C          5.69858        3.64983       -0.95597
C          4.90174        3.18261        0.06407
N          5.40733        3.57248        1.25335
C          3.68578        2.30890       -0.08665
N          2.87670        2.67787       -1.26947
C          1.66628        1.83168       -1.49598
H          7.53377        4.86675       -0.87848
H          7.15316        4.72984        1.74438
H          5.54608        3.48726       -2.00244
H          4.05164        1.27036       -0.18641
H          3.10393        2.38630        0.85210
C          0.63712        1.89269       -0.34644
C          0.97276        2.36053       -2.76402
C          2.02883        0.35606       -1.71586
H          0.21665        2.89579       -0.27579
H         -0.23133        1.23319       -0.55559
H          1.06262        1.57714        0.62501
H          1.64324        2.28346       -3.64626
H          0.03950        1.79212       -2.98011
H          0.69158        3.43064       -2.63559
H          2.76379        0.24384       -2.54250
H          2.44029       -0.10577       -0.79485
H          1.11851       -0.22991       -1.98011
Na         4.18669        2.28629       -3.20531
C          3.55543        5.67470       -3.46849
C          1.55750        6.83950       -2.89723
O          2.27218        5.60930       -2.86126
C          4.46026        6.80703       -2.96409
C          1.13084        7.22727       -4.31877
H          4.05917        4.72088       -3.23187
H          3.47341        5.68734       -4.57665
H          0.62720        6.71058       -2.31010
H          2.11198        7.67152       -2.41865
H          0.49670        6.42841       -4.75860
H          0.54361        8.17117       -4.28865
H          2.00618        7.40143       -4.97648
H          4.52453        6.78760       -1.85690
H          5.47308        6.68188       -3.37915
H          4.10411        7.79817       -3.31322
C          7.54783        6.36637       -5.32011
C          7.80519        5.77554       -4.11841
C          7.17103        4.53978       -4.11879
C          6.55254        4.35016       -5.30449
N          6.74038        5.50936       -6.09385
C          5.72723        3.17009       -5.88869
N          5.49669        1.89470       -5.14115
C          6.65741        0.96779       -4.91458
H          8.40156        6.19906       -3.31732
H          7.89616        7.34586       -5.62795
H          7.22311        3.89413       -3.27384
H          6.15895        2.93309       -6.87711
H          4.72391        3.59941       -6.08981
C          7.75390        1.53029       -4.01159
C          6.11257       -0.28347       -4.20308
C          7.30019        0.54030       -6.25023
H          7.33851        1.81325       -3.02019
H          8.53828        0.77127       -3.80663
H          8.29808        2.35748       -4.50643
H          5.35021       -0.79894       -4.81946
H          6.93763       -1.00207       -3.98944
H          5.65373        0.00054       -3.22964
H          6.56378        0.05164       -6.91575
H          7.75244        1.40782       -6.77602
H          8.13722       -0.17337       -6.05847
