81
speciation370.ct
Na         0.93676       -0.06161       -0.04697
Mg         4.41547        1.09305       -1.34866
C         -1.86845        1.15449       -0.58961
C         -2.00596       -0.38865        1.18335
O         -1.38324       -0.06161       -0.04697
C         -1.56976        2.39326        0.26544
C         -1.42427       -1.68069        1.73691
H         -1.35818        1.29353       -1.56600
H         -2.95446        1.08038       -0.81858
H         -1.84575        0.38565        1.96121
H         -3.09280       -0.55712        1.01725
H         -0.36524       -1.52345        2.01730
H         -1.96947       -1.97576        2.65759
H         -1.50573       -2.49788        0.98895
H         -0.48644        2.44802        0.50117
H         -1.86406        3.30528       -0.29475
H         -2.15754        2.39194        1.20606
H          6.65506       -0.42942       -1.99575
C          6.10460        0.10393       -3.98077
C          5.72330       -0.21196       -2.55579
C          7.08933        1.26217       -4.03622
H          6.59858       -0.79289       -4.42176
H          5.17636        0.31277       -4.55502
H          6.65171        2.14367       -3.55965
H          8.01665        0.99666       -3.48968
C          7.41770        1.57848       -5.48870
H          5.19279       -1.16529       -2.66719
H          7.89977        0.69972       -5.96791
H          6.48710        1.83124       -6.04186
H          8.10918        2.44340       -5.52771
C          6.71640       -0.27189        3.30492
C          7.17907       -0.54993        2.04341
C          6.13424       -0.32597        1.16533
C          5.04715        0.03736        1.85534
N          5.36768        0.11309        3.23064
C          3.63035        0.31320        1.34865
N          3.30676       -0.06161       -0.04697
C          3.19489       -1.56441       -0.33130
H          8.18187       -0.87513        1.79149
H          7.29615       -0.33327        4.21651
H          6.20116       -0.44804        0.11167
H          3.44750        1.39752        1.48538
H          2.93003       -0.18983        2.03957
C          2.22999       -2.31479        0.63630
C          2.59568       -1.72502       -1.74919
C          4.50070       -2.40835       -0.22274
H          1.19832       -1.96262        0.59714
H          2.15283       -3.38872        0.35261
H          2.58659       -2.29882        1.68580
H          3.13637       -1.14747       -2.51287
H          2.57539       -2.79309       -2.06005
H          1.55464       -1.34869       -1.78940
H          5.33337       -2.13005       -0.86547
H          4.85975       -2.47035        0.82318
H          4.29224       -3.46501       -0.50579
Mg         3.38245        3.59246        0.21113
C          7.20447        2.72504        2.09753
C          8.20187        2.35053        1.22320
C          7.76340        2.65011       -0.04913
C          6.54207        3.18891        0.04356
N          6.11322        3.25470        1.38605
C          5.79086        3.76450       -1.12158
N          4.46257        3.15024       -1.35931
C          3.70185        3.79589       -2.48496
H          9.15603        1.91666        1.49408
H          7.25164        2.62517        3.17471
H          8.32958        2.52053       -0.96301
H          6.43006        3.66291       -2.01272
H          5.68884        4.83983       -0.88636
C          4.44423        3.69548       -3.83241
C          2.36120        3.05201       -2.63069
C          3.38250        5.28142       -2.18649
H          4.59065        2.63677       -4.11377
H          3.83847        4.16273       -4.63954
H          5.40971        4.23626       -3.82599
H          1.76925        3.11697       -1.69278
H          1.76002        3.49932       -3.45320
H          2.53128        1.97945       -2.86703
H          2.75436        5.37817       -1.27641
H          4.28720        5.90384       -2.06337
H          2.82446        5.72973       -3.03653
