96
speciation1148.ct
Na         1.45370       -1.06207        1.07361
Mg         1.20445        1.87406       -1.01348
C         -1.46373       -2.12210        2.45481
C         -1.33689       -1.50510        0.15702
O         -0.61564       -1.78445        1.34751
C         -2.54077       -3.19134        2.14277
C         -2.31636       -0.35805        0.28826
H         -0.83457       -2.54725        3.26502
H         -1.96329       -1.21913        2.86645
H         -0.62291       -1.18431       -0.62384
H         -1.81146       -2.42122       -0.24370
H         -1.73732        0.53744        0.50310
H         -2.85291       -0.25912       -0.67318
H         -3.07767       -0.49584        1.07737
H         -2.06836       -4.13199        1.79265
H         -3.14484       -3.40334        3.04902
H         -3.26486       -2.84545        1.37427
H         -1.00280        3.68928       -1.76721
C         -1.63341        1.72012       -2.44700
C         -0.54592        2.79917       -2.24466
C         -2.85613        2.02677       -3.34739
H         -1.16329        0.78641       -2.81454
H         -2.03116        1.52707       -1.45184
H         -3.48125        1.10100       -3.36573
H         -3.47540        2.83627       -2.91037
C         -2.53798        2.38139       -4.80072
H         -0.19790        3.16463       -3.22391
H         -2.02795        3.36457       -4.85258
H         -1.91322        1.60168       -5.28441
H         -3.48757        2.45396       -5.38000
C          0.84505       -3.67773       -0.36681
C          1.02268       -4.31663       -1.55529
C          1.73998       -3.45741       -2.35209
C          1.93413       -2.29730       -1.61205
N          1.40198       -2.46434       -0.40573
C          2.67579       -1.04947       -2.04816
N          1.82668        0.09640       -2.50559
C          1.86940        0.16983       -4.03271
H          0.65347       -5.31123       -1.81682
H          0.31691       -4.07150        0.49793
H          2.07378       -3.69178       -3.35294
H          3.38103       -1.42571       -2.78575
H          3.40799       -0.70745       -1.33683
C          1.06720       -1.01201       -4.60888
C          1.21032        1.44142       -4.56739
C          3.29518        0.18821       -4.69006
H          0.06268       -1.05915       -4.13715
H          0.94583       -0.93299       -5.70993
H          1.59711       -1.95141       -4.43647
H          1.71420        2.34685       -4.17178
H          1.26284        1.48090       -5.68026
H          0.14656        1.42726       -4.35818
H          3.87373        1.08264       -4.37472
H          3.93127       -0.70315       -4.55497
H          3.19124        0.22451       -5.79994
Mg         2.62133        1.74522       -2.03309
C         -0.74600        2.75603        1.29409
C          1.07909        1.52941        2.10782
O          0.30114        1.82046        0.93993
C         -0.42322        3.97273        2.20997
C          0.34519        0.80499        3.24015
H         -1.21796        3.13684        0.37788
H         -1.54963        2.20564        1.82323
H          1.87272        0.87435        1.84156
H          1.57243        2.42698        2.51737
H          0.01264       -0.16322        2.89088
H          1.04585        0.61190        4.07955
H         -0.51807        1.37000        3.64108
H          0.01191        3.70439        3.19326
H         -1.36047        4.51861        2.43570
H          0.23292        4.70297        1.75185
C          4.48443       -1.11166        0.87006
C          5.75442       -0.63673        0.66138
C          5.63541        0.71885        0.48269
C          4.28450        1.03478        0.58416
N          3.57060       -0.11009        0.82950
C          3.82088        2.49019        0.48690
N          3.01615        2.97066       -0.68080
C          3.10516        4.45723       -0.94286
H          6.66462       -1.20884        0.63428
H          4.22563       -2.15295        1.04385
H          6.45161        1.40599        0.29568
H          3.33179        2.78026        1.43208
H          4.76467        3.06490        0.52131
C          4.54951        4.94969       -1.20795
C          2.26984        4.82020       -2.17858
C          2.54030        5.26352        0.23443
H          5.00327        4.40197       -2.05875
H          4.53946        6.03460       -1.45842
H          5.21820        4.88222       -0.32621
H          1.21946        4.55803       -2.00987
H          2.29559        5.91932       -2.35923
H          2.64747        4.30076       -3.07904
H          1.46978        5.07319        0.25478
H          3.01734        5.00989        1.20482
H          2.66315        6.35648        0.07866
