53
speciation841.ct
Na         1.54566        1.63504        0.14105
C         -1.53728        0.93569       -0.15381
C         -2.28278       -0.22247       -0.26419
C         -1.38718       -1.27295       -0.25681
C         -0.13265       -0.70544       -0.14685
N         -0.23237        0.62797       -0.08205
C          1.18059       -1.41115       -0.08049
N          2.27967       -0.42129       -0.03338
C          3.28202       -0.60614        1.03553
H         -3.36006       -0.28982       -0.33396
H         -1.92457        1.94480       -0.11662
H         -1.62258       -2.32741       -0.32109
H          1.30941       -2.03924       -0.98739
H          1.15567       -2.08428        0.79809
C          3.97683       -1.98164        0.95250
C          4.34381        0.48553        0.84185
C          2.62984       -0.42437        2.42001
H          4.45758       -2.11688       -0.03925
H          4.76179       -2.06001        1.73679
H          3.26534       -2.81642        1.11487
H          3.87032        1.48444        0.86845
H          5.11656        0.44186        1.63874
H          4.84285        0.37177       -0.14462
H          2.09577        0.54079        2.44683
H          1.89395       -1.21970        2.65145
H          3.39575       -0.43936        3.22441
Na         4.94135        2.99595        4.08463
Mg         3.18520       -0.48901       -1.76181
C          1.94039        2.30792        4.53629
C          0.67451        2.40032        3.99466
C          0.80848        3.06211        2.79430
C          2.15633        3.34141        2.65134
N          2.84330        2.87951        3.71553
C          2.78666        4.04719        1.48663
N          2.02693        3.73739        0.26834
C          2.46218        4.37362       -0.99334
H         -0.24315        2.02191        4.42447
H          2.18982        1.83968        5.47891
H          0.01426        3.30154        2.09929
H          3.84347        3.72360        1.39525
H          2.75936        5.13324        1.69988
C          3.88127        3.92022       -1.39058
C          1.47215        3.93168       -2.08255
C          2.41797        5.91489       -0.89555
H          3.94376        2.81249       -1.42434
H          4.14798        4.31936       -2.39420
H          4.63887        4.30088       -0.67405
H          0.44222        4.26127       -1.82306
H          1.74019        4.37115       -3.06819
H          1.46755        2.82513       -2.17989
H          1.40263        6.25784       -0.60275
H          3.14964        6.30008       -0.15513
H          2.67494        6.37526       -1.87440
