96
speciation1294.ct
Na         3.80416       -0.65828        1.76799
Mg         2.30929        4.78479       -1.01022
C          3.79531       -3.68724        2.24639
C          5.99859       -3.11299        1.66187
O          4.62277       -2.81214        1.49751
C          3.95802       -3.56045        3.76856
C          6.85701       -2.13440        0.87670
H          2.74551       -3.41953        2.00286
H          3.92611       -4.74096        1.91538
H          6.32827       -3.04683        2.71848
H          6.20258       -4.13056        1.25843
H          6.75288       -1.11264        1.29862
H          7.92318       -2.44260        0.95518
H          6.56368       -2.12886       -0.19302
H          3.83661       -2.50362        4.08487
H          3.18853       -4.17955        4.27495
H          4.94359       -3.93881        4.11031
H          3.56968        6.62420        0.50527
C          5.19304        6.26298       -0.87260
C          3.99991        5.77703       -0.06956
C          6.28235        6.78978        0.08124
H          5.60236        5.41454       -1.46318
H          4.85620        7.06185       -1.56110
H          5.86890        7.60114        0.72202
H          6.63323        5.96763        0.74490
C          7.47388        7.33953       -0.69077
H          4.39529        5.05830        0.67313
H          7.92515        6.54429       -1.32062
H          7.14984        8.18286       -1.33376
H          8.24160        7.70936        0.02346
C          2.30177        1.96677        3.13228
C          1.95405        3.28690        2.98396
C          2.44010        3.67349        1.75650
C          3.07471        2.56308        1.21285
N          2.96790        1.54200        2.04429
C          3.76604        2.38479       -0.09127
N          2.93362        2.78758       -1.21212
C          1.68465        2.04601       -1.55261
H          1.40345        3.89559        3.68683
H          2.07430        1.34228        3.98631
H          2.30655        4.64934        1.34178
H          4.68258        3.00327       -0.10490
H          4.09848        1.33236       -0.21931
C          0.64420        2.03697       -0.41173
C          1.03915        2.77407       -2.74675
C          1.99150        0.61214       -2.00749
H          0.43495        3.07284       -0.06799
H         -0.31379        1.59212       -0.75595
H          0.96929        1.41238        0.43929
H          1.71558        2.78417       -3.62778
H          0.08359        2.28804       -3.04391
H          0.80659        3.81732       -2.48073
H          2.69174        0.64399       -2.86417
H          2.42798        0.00577       -1.18949
H          1.06560        0.10825       -2.36226
Mg         4.03358        2.45878       -2.83757
C          4.77475        2.95078       -5.52971
C          5.17913        0.78482       -4.83415
O          5.10589        2.13824       -4.42218
C          4.75497        4.41085       -5.10992
C          5.53271       -0.12669       -3.66423
H          5.56291        2.86060       -6.31378
H          3.78228        2.67885       -5.95344
H          4.22017        0.44031       -5.28393
H          6.00605        0.66998       -5.57256
H          4.73031       -0.13985       -2.90527
H          5.66873       -1.16462       -4.03867
H          6.47401        0.20612       -3.18123
H          5.73787        4.70154       -4.68151
H          4.54957        5.04978       -5.99590
H          3.96493        4.57104       -4.35094
C         -2.80260        8.34372        0.33651
C         -3.26099        7.10680       -0.05675
C         -2.14484        6.31941       -0.31693
C         -1.05937        7.04720       -0.09368
N         -1.39997        8.35080        0.34025
C          0.37414        6.59441       -0.24339
N          0.73834        6.08530       -1.58322
C          0.70094        7.06969       -2.72223
H         -4.29622        6.81542       -0.14955
H         -3.41710        9.19147        0.60896
H         -2.15008        5.29175       -0.64569
H          0.50397        5.76015        0.46829
H          1.08539        7.38898        0.06602
C          1.56884        8.31063       -2.43370
C          1.22757        6.39090       -3.99885
C         -0.74459        7.53272       -3.06174
H          2.60470        8.00645       -2.17615
H          1.60548        8.98178       -3.32028
H          1.14815        8.90967       -1.59827
H          2.27863        6.07334       -3.87210
H          1.18722        7.09909       -4.85921
H          0.60304        5.51140       -4.26902
H         -1.40655        6.66108       -3.25085
H         -1.19583        8.17150       -2.28323
H         -0.75433        8.17254       -3.97374
