96
speciation1465.ct
Na         3.32903        0.08262        2.76393
Mg         2.22050        4.77588       -0.93459
C          5.34130        5.49146       -0.61206
C          3.93129        7.28479       -0.98030
O          3.99759        5.87209       -0.95706
C          5.70603        5.73871        0.86807
C          2.61751        7.72096       -1.53352
H          5.53816        4.45160       -0.91913
H          6.08996        6.01109       -1.25380
H          4.01748        7.71163        0.03805
H          4.71070        7.70676       -1.65980
H          1.80331        7.33133       -0.88886
H          2.56610        8.82526       -1.58777
H          2.55582        7.33395       -2.55743
H          4.99236        5.24347        1.55387
H          6.73102        5.35510        1.07663
H          5.73412        6.82472        1.09546
H          0.70403        6.43808       -2.64584
C         -0.59713        4.93073       -3.17093
C          0.83680        5.35255       -2.75124
C         -1.04894        5.62967       -4.45916
H         -0.68857        3.85415       -3.39192
H         -1.29666        5.18735       -2.34616
H         -1.02807        6.73342       -4.32258
H         -0.36060        5.35651       -5.28963
C         -2.46645        5.19982       -4.83784
H          1.52242        5.11818       -3.58866
H         -2.50565        4.10261       -5.01427
H         -3.17812        5.45913       -4.02577
H         -2.78030        5.71732       -5.76834
C          5.32893       -0.72999        0.57768
C          5.92739       -0.37006       -0.61793
C          5.43402        0.87404       -0.94558
C          4.53438        1.21862        0.04491
N          4.48340        0.23388        0.97161
C          3.70807        2.48469        0.10640
N          2.85750        2.74368       -1.09676
C          1.78183        1.68423       -1.22262
H          6.65141       -0.95014       -1.16755
H          5.49280       -1.65661        1.10680
H          5.69666        1.44898       -1.82007
H          3.10660        2.51815        1.03653
H          4.40292        3.29296        0.25693
C          0.95693        1.49435        0.07166
C          0.85723        2.14527       -2.30827
C          2.28482        0.28130       -1.65293
H          0.63940        2.46229        0.43640
H          0.05694        0.86752       -0.10237
H          1.53818        1.01242        0.88188
H          1.40568        2.30790       -3.26368
H          0.01375        1.44232       -2.48261
H          0.45254        3.06635       -1.89782
H          2.94503        0.33484       -2.54229
H          2.78771       -0.26663       -0.83875
H          1.41995       -0.37500       -1.89905
Mg         3.95746        2.41488       -2.72221
C          1.48929        5.87241        1.88685
C         -0.28909        4.73157        0.78172
O          1.04441        5.24302        0.68222
C          1.46587        4.99004        3.15668
C         -1.39231        5.76810        1.02883
H          2.53158        6.21188        1.74110
H          0.90763        6.80156        2.07365
H         -0.54124        4.25388       -0.18218
H         -0.36972        3.94344        1.55845
H         -1.43562        6.50526        0.20220
H         -2.36788        5.23653        1.07802
H         -1.26696        6.28857        2.00016
H          2.11931        4.09851        3.03214
H          1.82559        5.58073        4.02055
H          0.44386        4.66659        3.42145
C          5.37398        0.88996       -4.87904
C          6.19760        1.05870       -5.97444
C          6.38542        2.41637       -6.12265
C          5.66571        3.01590       -5.11142
N          5.05741        2.08608       -4.34766
C          5.57449        4.48500       -4.85982
N          5.01533        5.14512       -6.05266
C          4.77974        6.60184       -5.94154
H          6.62208        0.27834       -6.59174
H          5.03816       -0.05671       -4.47881
H          6.98378        2.91147       -6.87636
H          4.92227        4.62272       -3.97844
H          6.59327        4.86426       -4.64414
C          6.09409        7.38005       -5.71896
C          4.13942        7.06900       -7.26056
C          3.80077        6.91495       -4.80626
H          6.81280        7.16528       -6.54448
H          5.89791        8.46961       -5.69299
H          6.56550        7.10613       -4.75523
H          3.19418        6.51132       -7.45002
H          3.90013        8.15240       -7.22138
H          4.82613        6.89003       -8.11353
H          2.85125        6.36426       -4.95717
H          4.24149        6.64107       -3.83111
H          3.57501        8.00298       -4.76466
