95
speciation1665.ct
Na         3.92976        3.05160        1.02983
Mg        -1.54400        3.13364        3.60263
C         -3.53317        4.79635        3.68170
C         -3.61924        3.46728        5.64953
O         -3.37143        3.50111        4.23521
C         -2.68277        5.87331        4.36893
C         -5.03692        3.90322        6.07308
H         -3.18309        4.72455        2.63245
H         -4.60397        5.08502        3.61624
H         -3.53616        2.41845        5.99825
H         -2.86048        4.05255        6.20745
H         -5.80225        3.22604        5.63643
H         -5.11898        3.85383        7.17875
H         -5.26225        4.94828        5.77912
H         -1.63225        5.52267        4.45657
H         -2.70915        6.80838        3.77535
H         -3.07626        6.11037        5.38011
H         -1.16565        2.36256        6.13122
C          0.24044        0.95965        5.33245
C         -1.05198        1.75925        5.20537
C          1.46696        1.86423        5.42167
H          0.17994        0.33830        6.25540
H          0.33106        0.27650        4.46453
H          1.52671        2.48709        4.51171
H          1.38534        2.53260        6.30683
C          2.74202        1.03275        5.53697
H         -1.88259        1.02224        5.17185
H          2.72188        0.42306        6.46602
H          2.84096        0.35629        4.66060
H          3.62524        1.70409        5.56886
C          3.36027       -0.15845        0.98684
C          4.03390       -1.25952        1.47059
C          5.22404       -0.79612        1.98811
C          5.22458        0.57135        1.78564
N          4.07590        0.95839        1.21192
C          6.30306        1.52496        2.15210
N          5.99395        2.85856        1.59931
C          6.54943        4.01215        2.34174
H          3.69026       -2.28283        1.45213
H          2.39195       -0.18640        0.51902
H          6.00097       -1.38344        2.45672
H          7.26484        1.18131        1.71521
H          6.38964        1.50684        3.25334
C          8.08589        3.90835        2.45533
C          6.20454        5.28593        1.55226
C          5.91227        4.13296        3.74508
H          8.54667        3.85137        1.44470
H          8.49971        4.79892        2.97608
H          8.39201        3.00910        3.02962
H          5.10456        5.39435        1.45508
H          6.59662        6.18911        2.06851
H          6.64221        5.24971        0.53173
H          4.80757        4.21290        3.66048
H          6.14982        3.27357        4.40028
H          6.29508        5.03703        4.26442
Na         6.81605        2.88612       -0.37763
Mg        -1.48118        4.92941        0.69489
H         -1.63722        6.99241       -0.86677
C         -3.50883        7.22079        0.21236
C         -2.42647        6.34940       -0.42389
C         -4.06703        8.21748       -0.82061
H         -4.32394        6.56287        0.58427
H         -3.07550        7.77786        1.06958
H         -3.24654        8.88255       -1.16944
H         -4.47300        7.66912       -1.69933
C         -5.18041        9.08411       -0.23778
H         -2.88345        5.75689       -1.24502
H         -6.04173        8.45305        0.06753
H         -4.81107        9.65441        0.64021
H         -5.52891        9.80674       -1.00737
C          2.85534        5.59081       -0.46924
C          1.81015        6.48984       -0.52306
C          0.89726        6.07414        0.42108
C          1.40897        4.93384        1.00431
N          2.61585        4.65042        0.46905
C          0.76579        4.13525        2.11362
N         -0.55907        3.54422        1.78624
C         -0.63211        2.43795        0.82439
H          1.73740        7.36039       -1.16742
H          3.75534        5.63417       -1.07143
H         -0.02921        6.56964        0.66954
H          1.46609        3.36969        2.48014
H          0.61140        4.85107        2.94860
C          0.24995        1.28198        1.28111
C         -2.10168        2.00691        0.78429
C         -0.23286        2.88002       -0.60745
H          0.01152        1.00295        2.32343
H          0.12393        0.39913        0.62151
H          1.30989        1.60052        1.23705
H         -2.73543        2.85240        0.42959
H         -2.24915        1.14936        0.09246
H         -2.45290        1.71876        1.79655
H         -0.82832        3.76081       -0.93419
H          0.83998        3.13249       -0.69115
H         -0.41562        2.06283       -1.33649
