96
speciation1466.ct
Na         3.02550        0.18040        2.84279
Mg         2.14722        4.72823       -1.16060
C          4.16834        6.94645       -0.48726
C          4.79247        5.31094       -2.10329
O          3.90298        5.65710       -1.04288
C          4.24522        8.11366       -1.48647
C          6.26589        5.19818       -1.66062
H          3.38069        7.17214        0.25774
H          5.10896        6.90785        0.10671
H          4.49568        4.31612       -2.48177
H          4.68071        5.99120       -2.97169
H          6.38252        4.41806       -0.87957
H          6.90999        4.93741       -2.52077
H          6.66925        6.15876       -1.28701
H          3.28829        8.21638       -2.03388
H          4.45413        9.05478       -0.93337
H          5.08206        7.99516       -2.20782
H          0.98746        6.50894       -2.91339
C         -0.43165        4.99209       -3.52847
C          1.00411        5.40992       -3.06105
C         -0.88336        5.64602       -4.83884
H         -0.50497        3.91515       -3.75240
H         -1.15946        5.23839       -2.72545
H         -0.90417        6.74842       -4.72523
H         -0.17411        5.37294       -5.65107
C         -2.28221        5.14936       -5.24012
H          1.72137        5.16072       -3.87052
H         -2.28080        4.04756       -5.39983
H         -3.02640        5.38896       -4.45043
H         -2.60257        5.63256       -6.18683
C          5.05152       -0.77824        0.78963
C          5.72983       -0.52989       -0.38104
C          5.29636        0.70370       -0.81797
C          4.37230        1.15601        0.08309
N          4.23404        0.24033        1.09330
C          3.63971        2.47664       -0.02132
N          2.79113        2.67107       -1.24270
C          1.63073        1.70964       -1.30785
H          6.45467       -1.17766       -0.85867
H          5.15219       -1.66496        1.40078
H          5.60640        1.22296       -1.69375
H          3.03938        2.60974        0.89069
H          4.41008        3.27105       -0.00773
C          0.71694        1.77144       -0.06428
C          0.79878        2.13543       -2.48330
C          2.02100        0.22629       -1.51789
H          0.36103        2.80441        0.08286
H         -0.17944        1.12770       -0.20372
H          1.22755        1.40887        0.84985
H          1.39119        2.21403       -3.41438
H         -0.08387        1.48020       -2.65041
H          0.45159        3.11831       -2.17318
H          2.72866        0.10112       -2.34074
H          2.44406       -0.24399       -0.61656
H          1.11771       -0.38322       -1.74511
Mg         3.89109        2.34227       -2.86815
C         -0.21001        6.04824        0.33459
C          1.28269        4.92936        1.81204
O          0.92782        5.17635        0.44940
C         -0.14391        7.38903        1.10237
C          0.20878        4.16285        2.62416
H         -0.35688        6.29598       -0.73192
H         -1.13285        5.50324        0.63041
H          2.20515        4.33544        1.83338
H          1.56662        5.86537        2.33537
H          0.02638        3.14939        2.22269
H          0.54949        4.03846        3.67441
H         -0.76094        4.69875        2.66756
H          0.70118        8.01178        0.74390
H         -1.09097        7.95117        0.94168
H         -0.07075        7.25605        2.20271
C          9.18292        1.55034       -6.46125
C          8.52931        2.55285       -7.14266
C          7.43158        2.93144       -6.38055
C          7.41497        2.18066       -5.27664
N          8.50753        1.28251       -5.26221
C          6.41557        2.24547       -4.14875
N          4.99104        2.01347       -4.49360
C          4.65212        0.67898       -5.09675
H          8.83411        2.95839       -8.09840
H         10.08013        1.03999       -6.78944
H          6.71458        3.69879       -6.63608
H          6.48648        3.24969       -3.71982
H          6.75619        1.52716       -3.38787
C          5.08200       -0.49041       -4.18361
C          3.13037        0.62079       -5.30136
C          5.26610        0.45611       -6.50031
H          4.67423       -0.37116       -3.16986
H          4.71337       -1.46071       -4.58128
H          6.18686       -0.56186       -4.10773
H          2.78896        1.44350       -5.96469
H          2.82525       -0.34798       -5.75659
H          2.60025        0.70598       -4.35158
H          4.99378        1.28465       -7.18763
H          6.35999        0.32694       -6.48274
H          4.88896       -0.49523       -6.93729
