95
speciation1662.ct
Na         2.65162       -5.87268       -3.40526
Mg        -0.09932       -2.70422       -7.82606
C          1.47666       -4.79397       -7.30325
C         -0.53897       -5.40972       -8.42055
O          0.08433       -4.56114       -7.46615
C          2.30401       -4.78544       -8.59578
C         -0.59885       -6.86969       -7.96557
H          1.85690       -3.96573       -6.67002
H          1.65624       -5.72003       -6.71731
H         -1.58900       -5.08209       -8.51379
H         -0.08380       -5.32161       -9.42918
H         -1.15098       -6.94338       -7.00551
H         -1.13157       -7.47384       -8.73143
H          0.41577       -7.29953       -7.84187
H          2.10782       -3.85889       -9.17227
H          3.38360       -4.82955       -8.34138
H          2.08193       -5.67283       -9.22439
H         -1.18419       -1.44044      -10.07136
C         -2.53270       -3.06542      -10.37550
C         -1.19174       -2.51530       -9.81992
C         -3.81024       -2.39724       -9.84433
H         -2.54178       -2.89943      -11.47883
H         -2.60234       -4.15995      -10.22845
H         -3.84189       -1.32057      -10.12705
H         -4.68089       -2.89365      -10.33761
C         -3.97175       -2.52868       -8.33952
H         -0.39987       -3.00180      -10.42994
H         -3.19825       -1.92248       -7.82483
H         -4.97546       -2.15284       -8.04434
H         -3.88446       -3.59193       -8.03419
C          1.66422       -2.35892        1.56911
C          1.74856       -3.44262        2.42690
C          1.82503       -4.54720        1.62812
C          1.80626       -4.10120        0.32769
N          1.68562       -2.76635        0.27340
C          1.91197       -5.00784       -0.85307
N          3.10546       -4.72352       -1.66272
C          4.44093       -5.11865       -1.12919
H          1.75238       -3.44124        3.51032
H          1.58210       -1.33145        1.89283
H          1.90315       -5.58470        1.96018
H          1.01638       -4.85439       -1.48162
H          1.88751       -6.07566       -0.55592
C          4.49904       -6.62203       -0.78227
C          5.47176       -4.83373       -2.23345
C          4.86122       -4.29046        0.10703
H          4.21019       -7.23677       -1.66072
H          5.52773       -6.91021       -0.47417
H          3.83213       -6.87135        0.06879
H          5.47788       -3.75181       -2.48874
H          6.49535       -5.11239       -1.89714
H          5.23680       -5.41159       -3.15126
H          4.80214       -3.20160       -0.10483
H          4.25547       -4.52231        0.99598
H          5.90494       -4.53448        0.40187
Na         3.13064       -2.66790       -2.22809
Mg         1.50517       -1.55291       -1.37847
H          2.05388        0.86921       -0.15563
C          2.24916        1.42710       -2.23104
C          2.44099        0.41523       -1.09602
C          0.76899        1.79118       -2.38534
H          2.82285        2.35616       -2.00320
H          2.64909        0.99310       -3.17158
H          0.18098        0.86998       -2.58077
H          0.40693        2.25974       -1.44433
C          0.53913        2.77676       -3.52808
H          3.53105        0.25630       -0.94691
H          1.11588        3.71320       -3.37335
H          0.84355        2.32487       -4.48393
H         -0.54042        3.02450       -3.59869
C         -0.57743       -2.98722       -2.60588
C         -1.32091       -3.42441       -3.67646
C         -0.79237       -2.82076       -4.79346
C          0.26525       -2.04163       -4.36251
N          0.39919       -2.15233       -2.99950
C          1.17396       -1.21948       -5.24267
N          0.81349       -1.17965       -6.70270
C          1.71592       -0.29619       -7.50643
H         -2.15037       -4.11281       -3.64148
H         -0.73746       -3.27366       -1.57654
H         -1.13690       -2.95323       -5.80616
H          1.12520       -0.19611       -4.83084
H          2.18602       -1.63588       -5.09837
C          3.21878       -0.62694       -7.31192
C          1.39203       -0.46486       -8.99310
C          1.49087        1.18545       -7.14856
H          3.43366       -1.68207       -7.58002
H          3.84418        0.03325       -7.95571
H          3.56122       -0.43736       -6.27331
H          0.34674       -0.16442       -9.18882
H          2.04663        0.18716       -9.61489
H          1.55314       -1.51392       -9.31737
H          0.41460        1.45113       -7.23920
H          1.84507        1.39821       -6.12848
H          2.07451        1.85205       -7.81904
