95
speciation1260.ct
Na         0.83338       -0.63005       -0.12562
Mg        -2.24810        0.44088       -1.70277
C          3.52949       -1.53485        0.79375
C          3.64233        0.83364        0.80310
O          3.04175       -0.33079        0.20913
C          3.35791       -1.62586        2.31878
C          5.17131        0.95744        0.56179
H          2.93907       -2.35711        0.33750
H          4.57425       -1.74700        0.49131
H          3.18676        1.74281        0.36253
H          3.43744        0.89845        1.89013
H          5.40181        1.09159       -0.51580
H          5.57241        1.84094        1.10848
H          5.74291        0.08412        0.94144
H          2.31529       -1.37432        2.60065
H          3.59376       -2.65397        2.66228
H          4.05790       -0.94647        2.85084
H         -2.22623        3.00778       -0.97975
C         -4.36234        2.73184       -0.87575
C         -3.00850        2.43421       -1.52040
C         -4.39613        2.30081        0.58571
H         -4.56143        3.82461       -0.93243
H         -5.15177        2.19912       -1.44133
H         -4.19122        1.22477        0.61619
H         -3.62265        2.84735        1.17100
C         -5.76617        2.54325        1.21093
H         -3.03554        2.80384       -2.56657
H         -6.01187        3.62587        1.19926
H         -6.54371        1.98330        0.64865
H         -5.76723        2.18644        2.26322
C          0.13186        5.18866       -2.58151
C          0.31265        4.68859       -3.84943
C          0.49432        3.32558       -3.71115
C          0.35747        3.02932       -2.35396
N          0.16951        4.18511       -1.68324
C          0.53175        1.71087       -1.56255
N         -0.20981        0.44305       -1.85881
C          0.05114       -0.17979       -3.17671
H          0.34434        5.26292       -4.76778
H          0.01886        6.23297       -2.32465
H          0.71402        2.67076       -4.54217
H          0.28490        1.97388       -0.51840
H          1.61371        1.49534       -1.52868
C          1.55421       -0.15123       -3.56771
C         -0.33489       -1.67065       -3.19361
C         -0.88215        0.46208       -4.26151
H          2.12389       -0.75041       -2.81870
H          1.72074       -0.61818       -4.56175
H          1.98852        0.86254       -3.60642
H         -1.39650       -1.78370       -2.98772
H         -0.17054       -2.12039       -4.20081
H          0.22199       -2.25846       -2.43889
H         -1.93150        0.12770       -4.12227
H         -1.00541        1.53748       -4.17473
H         -0.56729        0.19669       -5.29361
Na         0.09569        4.30063        0.44108
Mg        -2.13876       -2.68693        1.28346
H         -3.31579       -2.12730       -2.39667
C         -4.96170       -0.81078       -2.60800
C         -3.71926       -1.24897       -1.85851
C         -5.94472       -1.97803       -2.78825
H         -5.44684       -0.00234       -2.02764
H         -4.65640       -0.42320       -3.60277
H         -5.46435       -2.79436       -3.37339
H         -6.24124       -2.38558       -1.79606
C         -7.19334       -1.51263       -3.52510
H         -4.04678       -1.66731       -0.88870
H         -7.69830       -0.71130       -2.94488
H         -6.91873       -1.12221       -4.52804
H         -7.89591       -2.36282       -3.65046
C         -2.72640       -5.37901        0.86976
C         -1.76779       -6.35682        0.77798
C         -0.53962       -5.74546        1.01017
C         -0.81851       -4.40173        1.23888
N         -2.09233       -4.23085        1.08091
C         -0.00959       -3.10753        1.72649
N         -0.58805       -1.72037        1.33207
C         -1.48391       -0.77671        2.13445
H         -1.99043       -7.40321        0.58024
H         -3.80477       -5.47315        0.79562
H          0.42816       -6.26475        0.99988
H          0.05555       -3.19099        2.82868
H          1.05239       -3.20344        1.39101
C         -1.41639       -0.95547        3.66255
C         -1.14233        0.70063        1.82172
C         -2.98655       -0.87097        1.69329
H         -0.49419       -0.49744        4.07774
H         -2.27061       -0.41082        4.13233
H         -1.49837       -2.01191        3.97398
H         -1.25815        0.91601        0.73901
H         -1.86151        1.37806        2.34555
H         -0.12775        0.99198        2.15130
H         -2.99933       -0.68092        0.60740
H         -3.54980       -1.80616        1.91337
H         -3.61307       -0.12012        2.20349
