95
speciation1424.ct
Na         1.32072        1.96536        0.20704
Mg         7.94043        1.80018       -1.02448
C          2.44636        4.41392        1.56752
C          0.94428        4.84752       -0.22861
O          1.72995        3.90335        0.46155
C          1.55543        4.71141        2.76146
C          0.42900        4.20132       -1.51278
H          3.16218        3.63740        1.89067
H          3.07417        5.28481        1.27969
H          0.07352        5.16173        0.38353
H          1.56046        5.72447       -0.52901
H         -0.20550        3.32290       -1.27385
H         -0.17617        4.92820       -2.09247
H          1.27634        3.86187       -2.14543
H          0.93677        3.82102        3.00025
H          2.19698        4.95051        3.63636
H          0.90349        5.58136        2.54924
H         10.26699        0.86373       -1.62773
C         10.09943        0.14472        0.39448
C          9.86257        1.22336       -0.65804
C          9.59801        0.54423        1.78459
H          9.60193       -0.79476        0.07150
H         11.19387       -0.04662        0.45561
H          9.84081       -0.27998        2.49051
H         10.12383        1.46150        2.12796
C          8.08944        0.77781        1.81104
H         10.39696        2.15780       -0.38446
H          7.81583        1.63066        1.15677
H          7.55300       -0.13385        1.47145
H          7.77090        1.01674        2.84672
C         -1.73758        1.10521        0.15103
C         -2.38245       -0.11528        0.07470
C         -1.39397       -1.07801       -0.00692
C         -0.19235       -0.40764        0.01589
N         -0.40169        0.91693        0.12716
C          1.18417       -1.00715       -0.04931
N          2.24500        0.03300       -0.00400
C          3.19779       -0.11789        1.12926
H         -3.45442       -0.27740        0.08323
H         -2.21030        2.07271        0.22419
H         -1.54349       -2.14823       -0.07891
H          1.28926       -1.58551       -0.98706
H          1.23775       -1.71676        0.79879
C          3.90840       -1.49570        1.15637
C          4.28468        0.92098        0.92937
C          2.49937        0.15844        2.47708
H          4.44562       -1.68027        0.20103
H          4.65805       -1.51693        1.97927
H          3.21929       -2.34142        1.33783
H          3.81228        1.90708        0.84002
H          5.01615        0.93776        1.76491
H          4.83226        0.69156       -0.00450
H          1.98865        1.14479        2.45583
H          1.75036       -0.62166        2.71861
H          3.24499        0.17447        3.30271
Na         3.59933        0.09296       -1.94799
Mg         3.80975        0.47809       -5.48756
H          2.36376       -0.17105       -7.56299
C          3.23070        1.73964       -8.18622
C          2.63712        0.81142       -7.12323
C          2.27124        1.94665       -9.36575
H          3.45420        2.71889       -7.70947
H          4.17284        1.30167       -8.57493
H          2.07047        0.96645       -9.85033
H          1.30703        2.37369       -9.01178
C          2.88104        2.89213      -10.39973
H          1.71966        1.28402       -6.71251
H          3.03998        3.89823       -9.95564
H          3.85554        2.49639      -10.75811
H          2.19847        2.99155      -11.26984
C          5.37193        3.27331       -0.67576
C          4.18742        3.55849       -1.32425
C          4.14945        2.79941       -2.46366
C          5.33371        2.10643       -2.47672
N          6.06541        2.36286       -1.38194
C          5.82593        1.29682       -3.60017
N          4.95365        0.15292       -3.89199
C          5.58039       -0.68757       -5.01206
H          3.46095        4.27926       -1.02227
H          5.71948        3.72748        0.23554
H          3.37894        2.80179       -3.22108
H          6.84785        0.97216       -3.34824
H          5.86283        2.00133       -4.45372
C          6.84941       -1.46372       -4.60259
C          4.56784       -1.75246       -5.53447
C          6.00852        0.19781       -6.24844
H          6.62724       -2.23574       -3.84310
H          7.26115       -1.98315       -5.50285
H          7.65924       -0.80104       -4.24742
H          3.57502       -1.36174       -5.82193
H          4.96866       -2.24493       -6.45256
H          4.39367       -2.54936       -4.78537
H          5.22326        0.86001       -6.63664
H          6.86797        0.86034       -6.02202
H          6.32859       -0.42760       -7.11023
