110
speciation2519.ct
Na         1.27692        1.47086        0.20271
Mg         3.52498       -0.42327       -1.67587
C          2.00000       -1.08355       -4.49367
C          1.02759        0.79045       -3.42702
O          2.02351       -0.26430       -3.31967
C          2.47843       -0.40391       -5.80064
C         -0.43259        0.45823       -3.72383
H          2.59773       -1.99146       -4.31871
H          0.97889       -1.48779       -4.65591
H          0.91768        1.26754       -2.44344
H          1.31770        1.54182       -4.19156
H         -0.83995       -0.20739       -2.94139
H         -1.00032        1.42161       -3.69435
H         -0.58392        0.05149       -4.74280
H          3.55885       -0.16334       -5.76792
H          2.30571       -1.09929       -6.65317
H          1.91553        0.51977       -6.04825
H          6.08478        1.19742       -2.32729
C          6.67062        1.58233       -0.33248
C          5.55747        1.26894       -1.35247
C          7.35633        2.93082       -0.68656
H          6.22786        1.73265        0.67358
H          7.40425        0.75337       -0.28753
H          7.82829        2.86867       -1.68917
H          6.60321        3.75741       -0.71502
C          8.39141        3.32094        0.35221
H          5.11506        2.25936       -1.29312
H          7.90078        3.45958        1.34025
H          9.16236        2.52878        0.42184
H          8.86856        4.27987        0.05672
C         -1.77259        0.54915        0.37168
C         -2.40840       -0.67858        0.31377
C         -1.42367       -1.62898        0.14924
C         -0.20985       -0.93159        0.10174
N         -0.44388        0.38002        0.24778
C          1.15778       -1.52730       -0.06397
N          2.25891       -0.51660        0.06416
C          2.96858       -0.57603        1.38949
H         -3.47274       -0.85103        0.38688
H         -2.28397        1.49740        0.49811
H         -1.55152       -2.69113        0.05987
H          1.20549       -1.98288       -1.07988
H          1.25075       -2.33430        0.67997
C          3.68832       -1.92199        1.65306
C          4.01757        0.50157        1.36093
C          2.02198       -0.29523        2.56727
H          4.37271       -2.17773        0.82186
H          4.29068       -1.84001        2.58528
H          2.98685       -2.76050        1.81923
H          3.58064        1.49781        1.13776
H          4.59777        0.56905        2.30424
H          4.70163        0.18320        0.57355
H          1.45701        0.60500        2.35734
H          1.29448       -1.11214        2.73608
H          2.59418       -0.13339        3.50897
Na         3.78521        3.81736        0.70091
Mg         2.02363        5.40756       -4.40950
C          5.76045       -2.01558       -2.57420
C          3.95279       -3.41220       -1.91642
O          4.56681       -2.12951       -1.79832
C          5.61597       -2.30547       -4.07084
C          4.82788       -4.56874       -1.38364
H          6.11639       -0.98253       -2.48413
H          6.58665       -2.61064       -2.13000
H          3.02790       -3.41861       -1.31075
H          3.64449       -3.61933       -2.95970
H          5.02517       -4.44968       -0.29772
H          4.30526       -5.53617       -1.54275
H          5.79859       -4.65206       -1.91605
H          4.82289       -1.67062       -4.49815
H          6.56861       -2.06827       -4.58904
H          5.39908       -3.37634       -4.26263
H          1.90830        7.82546       -4.65510
C          0.17736        7.15675       -5.78584
C          1.63216        7.02936       -5.37402
C         -0.26339        6.04640       -6.74682
H         -0.46041        7.12841       -4.87562
H          0.06654        8.14201       -6.28244
H          0.39589        6.02973       -7.64228
H         -0.20400        5.05463       -6.24469
C         -1.69877        6.29897       -7.20544
H          2.31094        7.04100       -6.25037
H         -2.38575        6.31882       -6.33267
H         -1.75977        7.27554       -7.73367
H         -2.02688        5.50038       -7.90263
C          3.36480        3.01677       -4.09376
C          3.63444        1.99086       -3.26093
C          3.00725        2.29006       -2.05665
C          2.38986        3.49866       -2.20543
N          2.58852        3.92162       -3.47611
C          1.57779        4.20307       -1.15710
N          1.71977        3.57748        0.18382
C          0.93335        4.20394        1.28829
H          4.19657        1.09723       -3.50481
H          3.70828        3.08296       -5.12442
H          2.99233        1.67444       -1.17128
H          0.52551        4.18921       -1.50069
H          1.94945        5.24383       -1.10913
C         -0.57579        4.18184        0.98976
C          1.14747        3.38942        2.57736
C          1.40155        5.63870        1.57264
H         -0.88339        3.14333        0.78293
H         -1.15654        4.54399        1.86627
H         -0.84402        4.80964        0.12006
H          2.22663        3.23404        2.79578
H          0.67784        3.88315        3.45612
H          0.62519        2.42926        2.48735
H          2.47887        5.64806        1.84255
H          1.23039        6.30313        0.70496
H          0.82727        6.05936        2.42834
