83
speciation2327.ct
Na         0.91051        0.02961       -0.03339
C         -2.07216        0.95657       -0.87282
C         -2.12921       -0.25534        1.15423
O         -1.40949        0.02961       -0.03339
C         -1.25759        1.18644       -2.13775
C         -2.31235        0.94604        2.09119
H         -3.06124        0.55048       -1.18318
H         -2.18497        1.94701       -0.38645
H         -3.11285       -0.71318        0.90711
H         -1.56246       -1.03489        1.70519
H         -2.82510        0.61082        3.01734
H         -2.95568        1.72744        1.63733
H         -1.32861        1.38261        2.36031
H         -1.10654        0.23173       -2.68304
H         -0.27029        1.62550       -1.88069
H         -1.79822        1.89681       -2.80058
C          1.72512       -2.78980        2.80907
C          2.26918       -3.94588        2.29270
C          2.98453       -3.57509        1.18121
C          2.85234       -2.20454        1.06215
N          2.07849       -1.72413        2.06160
C          3.52729       -1.43094       -0.04059
N          3.28051        0.02961       -0.03339
C          3.79166        0.69283       -1.27467
H          2.16387       -4.95024        2.68163
H          1.10809       -2.73588        3.69580
H          3.54945       -4.22859        0.52987
H          3.12485       -1.88823       -0.96209
H          4.61315       -1.63459        0.01303
C          3.11314        0.16172       -2.56253
C          3.47843        2.18150       -1.17213
C          5.32773        0.55374       -1.41337
H          2.00874        0.24642       -2.48882
H          3.45150        0.74872       -3.44432
H          3.38656       -0.88722       -2.78997
H          4.05446        2.59014       -0.32446
H          3.80139        2.72876       -2.08507
H          2.38859        2.34690       -1.02691
H          5.83809        0.95451       -0.51388
H          5.64250       -0.49845       -1.55937
H          5.69106        1.12157       -2.29803
Na         1.42250        0.23545        2.59119
Mg         4.11352        1.08183        1.57020
C          5.71655       -1.00391        2.73719
C          6.90178        1.01813        2.70353
O          5.77476        0.31346        2.21565
C          5.37288       -1.05659        4.21557
C          6.99354        2.40563        2.08958
H          4.89924       -1.51772        2.23566
H          6.62723       -1.59159        2.49322
H          6.86161        1.15047        3.80332
H          7.83347        0.47794        2.41942
H          7.91201        2.90749        2.46838
H          6.12237        3.01615        2.38699
H          7.05162        2.34121        0.98571
H          4.45649       -0.46997        4.34062
H          6.19103       -0.66129        4.85222
H          5.16369       -2.09982        4.53038
C          3.08514        4.01493        1.70106
C          2.83460        5.05219        2.57079
C          3.12617        4.58511        3.82701
C          3.55123        3.27705        3.66776
N          3.54325        2.92474        2.35464
C          3.94777        2.35383        4.77582
N          3.49749        2.86951        6.07636
C          3.73167        1.99014        7.24798
H          2.47166        6.03951        2.31312
H          2.92560        4.09562        0.64041
H          3.04634        5.14963        4.74729
H          3.40629        1.41871        4.56115
H          5.04546        2.20991        4.75028
C          5.22710        1.98288        7.60741
C          2.93012        2.57114        8.41993
C          3.22970        0.54416        7.02743
H          5.58358        3.01914        7.79302
H          5.40555        1.37598        8.52097
H          5.83350        1.54552        6.78751
H          1.84665        2.59820        8.16654
H          3.05420        1.93967        9.32871
H          3.26084        3.60250        8.65735
H          2.16022        0.53240        6.72819
H          3.82405        0.02775        6.26764
H          3.35013       -0.05474        7.95360
