110
speciation2092.ct
Na         0.79616        1.79085        0.32601
Mg         4.01249       -0.06123       -1.60795
C          1.57720        2.18086        3.66474
C         -0.09257        3.57434        2.87198
O          1.02719        2.79505        2.47972
C          0.60712        1.30710        4.50524
C          0.26814        4.78762        3.74968
H          2.43637        1.58544        3.39470
H          2.09446        2.91625        4.31173
H         -0.54934        3.95885        1.98734
H         -0.89448        2.96040        3.32783
H          0.98406        5.45103        3.22100
H         -0.65327        5.35648        3.98690
H          0.70485        4.49103        4.72537
H         -0.00878        0.62174        3.88967
H          1.18788        0.69346        5.22509
H         -0.09294        1.93276        5.09029
H          3.88654       -0.15363       -4.52062
C          2.88368        1.54721       -3.75638
C          3.28696        0.12192       -3.62750
C          4.02314        2.49144       -3.98828
H          2.15514        1.67092       -4.58470
H          2.54424        1.77089       -2.73522
H          4.79612        2.13757       -3.31975
H          4.43349        2.41646       -5.01165
C          3.57471        3.92694       -3.65706
H          2.38760       -0.53559       -3.60616
H          2.82152        4.27819       -4.38910
H          3.10427        3.98137       -2.65426
H          4.43786        4.61773       -3.63956
C         -1.98748        0.62734        0.51051
C         -2.52332       -0.60837        0.22937
C         -1.46627       -1.42586       -0.15648
C         -0.31824       -0.64284       -0.11536
N         -0.65948        0.58025        0.32073
C          1.11326       -1.05702       -0.54990
N          2.20053       -0.05095       -0.22502
C          2.80350       -0.32054        1.10336
H         -3.57490       -0.85974        0.27097
H         -2.52567        1.52674        0.78799
H         -1.55003       -2.45711       -0.46309
H          1.09404       -1.26045       -1.63531
H          1.32144       -2.04409       -0.08394
C          3.68463       -1.57858        1.14716
C          3.66457        0.88129        1.38991
C          1.73571       -0.52060        2.19553
H          4.44343       -1.48431        0.36679
H          4.20781       -1.65033        2.12813
H          3.10906       -2.52246        1.03503
H          3.09520        1.82866        1.29706
H          4.19706        0.81822        2.36062
H          4.40963        0.90734        0.61603
H          1.03550        0.30995        2.09869
H          1.14211       -1.44881        2.09306
H          2.21081       -0.57569        3.19963
Na        -1.27175        3.80327       -5.72296
Mg         1.78338        3.73436       -1.17642
C          6.92143        0.81340       -0.61177
C          5.47013        2.63985       -1.01114
O          5.66862        1.23513       -1.17705
C          7.17293        1.16541        0.87538
C          6.44287        3.51246       -1.85264
H          7.76564        1.21600       -1.21545
H          7.00529       -0.27793       -0.70907
H          4.42722        2.85495       -1.28350
H          5.49526        2.96612        0.04569
H          6.48222        3.24027       -2.92557
H          6.13488        4.57698       -1.79304
H          7.48465        3.44133       -1.48711
H          7.22951        2.26006        1.05725
H          6.40832        0.72095        1.53631
H          8.15553        0.76355        1.19871
H          3.86080       -2.52703       -2.63888
C          5.63030       -2.92209       -1.45583
C          4.76032       -1.98056       -2.27873
C          6.04651       -4.17186       -2.23710
H          6.53998       -2.37482       -1.14441
H          5.06716       -3.26788       -0.57336
H          5.13902       -4.74029       -2.53267
H          6.61405       -3.90077       -3.15579
C          6.92150       -5.05052       -1.34536
H          5.35616       -1.67161       -3.16837
H          7.86069       -4.51447       -1.08860
H          6.38067       -5.29509       -0.40539
H          7.17485       -5.99542       -1.86649
C         -2.58540        1.15441       -4.99557
C         -2.58758        0.05911       -4.15795
C         -1.63624        0.29408       -3.19854
C         -1.09226        1.54533       -3.45377
N         -1.64907        2.02986       -4.59138
C          0.11552        2.13319       -2.74123
N          0.01366        3.01276       -1.54731
C         -0.75903        4.27654       -1.76813
H         -3.19948       -0.83275       -4.25579
H         -3.19214        1.27641       -5.87202
H         -1.34150       -0.38834       -2.44167
H          0.66419        2.67956       -3.51418
H          0.63866        1.22599       -2.39720
C         -2.27212        4.00823       -1.91124
C         -0.57964        5.18322       -0.55736
C         -0.21666        5.08632       -2.97645
H         -2.64774        3.46975       -1.01534
H         -2.82478        4.96412       -2.01741
H         -2.53841        3.41909       -2.79391
H          0.49463        5.36103       -0.33143
H         -1.08449        6.16159       -0.70137
H         -1.09333        4.71393        0.27250
H          0.85742        5.33796       -2.83373
H         -0.31667        4.55358       -3.93215
H         -0.77681        6.03982       -3.09248
