81
speciation409.ct
Na         1.05590       -0.03806        0.07367
Mg         5.41047        4.77818        0.42231
C         -1.71480       -0.20928       -1.25829
C         -1.91477        1.02295        0.74645
O         -1.26410       -0.03806        0.07367
C         -1.44693        0.98879       -2.17802
C         -1.30741        1.20201        2.13276
H         -1.14598       -1.07062       -1.66737
H         -2.78529       -0.50930       -1.28593
H         -1.81432        1.99551        0.22094
H         -2.98758        0.76362        0.88114
H         -1.90247        1.94504        2.70653
H         -0.26318        1.57352        2.05163
H         -1.31037        0.23959        2.68598
H         -0.39167        1.32132       -2.08572
H         -2.12806        1.83338       -1.94613
H         -1.63951        0.69338       -3.23096
H          5.97963        7.13840        1.69655
C          7.65648        7.27002        0.34727
C          6.65568        6.43480        1.16557
C          6.99085        8.13973       -0.72284
H          8.20722        7.94112        1.04740
H          8.39394        6.58894       -0.12766
H          6.45305        7.48886       -1.44026
H          6.26891        8.83993       -0.24773
C          8.03125        8.96008       -1.49011
H          7.25039        5.89247        1.92983
H          8.57344        9.64845       -0.80634
H          8.76751        8.29049       -1.98419
H          7.52904        9.56838       -2.27188
C          6.82532        3.55921       -1.22823
C          7.37555        2.55660       -1.94393
C          6.80902        1.40047       -1.45347
C          5.82612        1.72013       -0.44969
N          5.92142        3.11041       -0.33838
C          4.87793        0.60425        0.41313
N          3.42590       -0.03806        0.07367
C          3.55138       -0.29717       -1.43796
H          8.12748        2.67130       -2.72258
H          7.05936        4.60856       -1.39246
H          7.18088        0.49719       -1.89103
H          5.57103       -0.23574        0.52346
H          4.98476        0.85881        1.48100
C          4.82560       -1.14915       -1.78712
C          2.43579       -1.16610       -2.04246
C          3.44451        1.02404       -2.24636
H          4.80149       -2.12511       -1.26896
H          4.94607       -1.30418       -2.88264
H          5.77025       -0.77842       -1.47535
H          1.44090       -0.69443       -1.98451
H          2.63959       -1.27674       -3.14360
H          2.42179       -2.18682       -1.62040
H          2.40907        1.40511       -2.24777
H          4.00768        1.84827       -1.83892
H          3.78022        0.89639       -3.30019
Mg         3.33120        1.59092        1.19728
C          4.95753        2.89279        3.42742
C          5.25657        4.14640        3.93103
C          4.55748        5.04748        3.15573
C          3.88198        4.30498        2.20043
N          4.11179        2.99688        2.37240
C          3.03124        4.84756        1.08813
N          3.67325        4.52143       -0.18739
C          3.10539        5.10678       -1.43364
H          5.91397        4.37603        4.76398
H          5.35704        1.96178        3.81641
H          4.56023        6.12451        3.26229
H          2.02979        4.38414        1.15984
H          2.98994        5.94058        1.22287
C          3.10264        6.64145       -1.37932
C          3.94671        4.73009       -2.68705
C          1.68579        4.54822       -1.62103
H          4.14377        7.00781       -1.25348
H          2.69796        7.05602       -2.32721
H          2.48127        7.03070       -0.55503
H          4.06017        3.65256       -2.85501
H          3.44973        5.11365       -3.60838
H          4.96359        5.17422       -2.66040
H          1.71967        3.43993       -1.64279
H          1.02913        4.84917       -0.78257
H          1.23094        4.90845       -2.56494
