110
speciation1959.ct
Na         0.98914        0.05912       -0.03844
Mg         0.75862       -4.48527        3.96085
C          4.10399        0.09979        0.34885
C          3.31953       -1.67938       -1.03609
O          3.00307       -0.73129       -0.02408
C          4.86066        0.78300       -0.80034
C          4.28710       -2.77015       -0.54941
H          3.71254        0.91274        0.97397
H          4.80883       -0.45572        1.00489
H          2.37982       -2.18938       -1.33018
H          3.69526       -1.19435       -1.95994
H          3.84626       -3.32974        0.30254
H          4.49032       -3.48459       -1.37611
H          5.26329       -2.34401       -0.23627
H          4.15919        1.33806       -1.44839
H          5.59266        1.50691       -0.38365
H          5.43608        0.05049       -1.40356
H          0.75818       -7.05259        3.26924
C          0.55996       -7.45091        5.38354
C          1.09911       -6.59738        4.22436
C         -0.96873       -7.54990        5.38974
H          0.97687       -8.47702        5.27937
H          0.91975       -7.02029        6.34117
H         -1.40941       -6.53559        5.49727
H         -1.32439       -7.99879        4.43533
C         -1.45000       -8.42937        6.54506
H          2.20743       -6.66217        4.23852
H         -1.05621       -9.46576        6.44063
H         -1.11346       -8.01575        7.51874
H         -2.56036       -8.48144        6.54826
C          0.16549       -4.61689        1.08711
C         -0.19131       -3.89195       -0.02777
C         -0.27273       -2.56965        0.36336
C          0.04371       -2.54347        1.70672
N          0.29677       -3.80121        2.15363
C          0.13705       -1.33817        2.60064
N         -0.22193       -0.06092        1.96151
C          0.04949        1.13228        2.83966
H         -0.35639       -4.28114       -1.02326
H          0.31699       -5.68577        1.12623
H         -0.52270       -1.73192       -0.27053
H          1.19697       -1.30037        2.90217
H         -0.53712       -1.51601        3.45922
C          1.54980        1.38527        3.04563
C         -0.53062        2.37566        2.14811
C         -0.58314        1.01824        4.25410
H          2.03613        1.52663        2.07217
H          1.70385        2.31607        3.63846
H          2.03898        0.56953        3.61365
H         -1.62011        2.29293        2.08378
H         -0.33147        3.30107        2.73147
H         -0.10145        2.50206        1.12894
H         -1.64987        0.81270        4.21289
H         -0.12031        0.20511        4.84893
H         -0.43331        1.96213        4.82371
Na        -3.06452        1.68052        0.78572
Mg        -2.17842       -0.04546        1.59819
C         -0.98762        1.05128       -2.07979
C          1.22292        1.27432       -2.92865
O          0.39240        1.24719       -1.76902
C         -1.30943       -0.12763       -3.01547
C          0.98108        2.50582       -3.82684
H         -1.51125        0.86496       -1.12222
H         -1.43086        1.98524       -2.48800
H          2.27146        1.33883       -2.59594
H          1.15641        0.33931       -3.51716
H          1.18809        3.44606       -3.27404
H          1.65677        2.46292       -4.71006
H         -0.05705        2.54074       -4.22024
H         -0.87021       -1.06912       -2.61574
H         -2.40921       -0.25566       -3.09686
H         -0.92873        0.04206       -4.04144
H          1.54551       -2.15398        4.80710
C          1.61732       -3.04134        6.71188
C          0.95347       -2.90628        5.35710
C          3.04500       -3.56097        6.55759
H          1.63395       -2.03318        7.18847
H          1.02381       -3.72948        7.34743
H          3.00898       -4.57467        6.10489
H          3.63413       -2.89112        5.89075
C          3.73760       -3.63011        7.91257
H         -0.07265       -2.50861        5.50215
H          3.84183       -2.60937        8.34093
H          3.14902       -4.26061        8.61180
H          4.74795       -4.07155        7.79053
C         -4.08859        2.98453       -1.90012
C         -4.86746        2.38120       -2.86660
C         -5.16663        1.11137       -2.39729
C         -4.57196        1.00083       -1.14867
N         -3.89742        2.12565       -0.88075
C         -4.63534       -0.21528       -0.18394
N         -4.13492       -0.03000        1.23488
C         -5.07568        0.62707        2.20764
H         -5.16959        2.81732       -3.81203
H         -3.66328        3.97939       -1.95743
H         -5.75797        0.36786       -2.91396
H         -5.67883       -0.57363       -0.16885
H         -4.05709       -1.03169       -0.66132
C         -6.41019       -0.12154        2.35186
C         -4.38030        0.62275        3.56768
C         -5.37890        2.12257        1.87436
H         -6.23808       -1.17397        2.64123
H         -7.02908        0.36338        3.14302
H         -7.01302       -0.07959        1.42678
H         -3.49044        1.25849        3.48559
H         -5.02118        1.05375        4.36924
H         -4.07048       -0.40013        3.86880
H         -4.47421        2.76667        1.90490
H         -5.87627        2.23081        0.89280
H         -6.05960        2.55344        2.64261
