83
speciation295.ct
Na         2.02137       -3.02156        1.41266
Mg        -3.43458       -2.49263       -1.01757
C          1.28647       -5.73900       -0.11329
C          3.19205       -4.88850       -1.04863
O          2.34180       -4.81305        0.09574
C          0.32058       -5.72736        1.04658
C          4.34482       -3.90795       -1.00013
H          0.71759       -5.49322       -1.03884
H          1.68376       -6.78101       -0.18164
H          3.65657       -5.90646       -1.11057
H          2.62809       -4.68790       -1.99051
H          4.99189       -4.11373       -0.12474
H          4.95551       -4.03330       -1.92402
H          3.95792       -2.87085       -0.96872
H         -0.05218       -4.71014        1.18509
H         -0.52897       -6.40676        0.81877
H          0.82659       -6.05198        1.97550
C          0.60835       -1.10694        3.61486
C         -0.53437       -0.47677        4.07829
C         -1.55475       -0.86515        3.24897
C         -0.99182       -1.71141        2.30988
N          0.34594       -1.87169        2.52438
C         -1.77526       -2.34241        1.19512
N         -2.35360       -1.36686        0.25265
C         -1.40936       -0.55189       -0.55208
H         -0.61821        0.19834        4.92359
H          1.58720       -0.99237        4.05839
H         -2.59093       -0.55299        3.31803
H         -1.16818       -3.05495        0.63064
H         -2.60279       -2.92358        1.65478
C         -0.30768       -1.40599       -1.21774
C         -2.24493        0.11290       -1.65362
C         -0.76391        0.57285        0.28992
H         -0.76297       -2.17721       -1.86796
H          0.35623       -0.76964       -1.83943
H          0.34181       -1.90481       -0.46763
H         -3.04342        0.74254       -1.20535
H         -1.60771        0.75459       -2.29933
H         -2.72722       -0.66076       -2.28852
H         -1.53970        1.16149        0.82575
H         -0.03874        0.19300        1.02515
H         -0.18609        1.26432       -0.35675
Na        -3.62327        0.07043        1.22774
C          4.64849       -3.20322        2.79491
C          4.26836       -0.94845        2.27639
O          3.93828       -2.29581        1.96832
C          4.24366       -3.14062        4.27292
C          3.58960        0.00771        1.31282
H          4.42606       -4.22355        2.42132
H          5.74920       -3.07527        2.67872
H          3.95299       -0.66258        3.30157
H          5.36624       -0.79166        2.15953
H          2.48927       -0.05107        1.43393
H          3.91777        1.04701        1.53788
H          3.86893       -0.23782        0.26797
H          3.14372       -3.24362        4.37246
H          4.73901       -3.96501        4.82714
H          4.57171       -2.19146        4.74600
C         -1.98045       -4.58728       -2.72545
C         -2.41405       -5.52742       -3.65339
C         -3.78624       -5.37214       -3.75834
C         -4.11879       -4.36609       -2.87473
N         -3.02967       -3.90023       -2.25481
C         -5.47179       -3.81117       -2.59559
N         -5.36513       -2.77010       -1.54788
C         -6.08657       -3.05319       -0.28942
H         -1.80163       -6.22039       -4.20807
H         -0.95596       -4.44464       -2.41543
H         -4.45808       -5.93387       -4.39305
H         -6.14045       -4.64844       -2.31501
H         -5.87877       -3.35744       -3.52709
C         -5.53205       -4.33015        0.37820
C         -5.83352       -1.86569        0.64289
C         -7.61298       -3.16456       -0.50570
H         -4.42840       -4.25711        0.48395
H         -5.97675       -4.47067        1.38598
H         -5.75993       -5.23925       -0.21435
H         -6.20295       -0.92154        0.18501
H         -6.33204       -2.00705        1.62511
H         -4.75257       -1.77230        0.82259
H         -8.00938       -2.23632       -0.97064
H         -7.89033       -4.02112       -1.15082
H         -8.12688       -3.31132        0.46989
