81
speciation398.ct
Na         2.11951        0.34587        0.94213
Mg         3.42811        6.26412        0.06685
C          1.64906        0.34171        3.71347
C          3.09677        2.03429        2.93454
O          2.80167        0.65715        2.94688
C          1.90671        0.20883        5.22193
C          3.93896        2.49266        4.11924
H          0.76544        0.97962        3.49610
H          1.36187       -0.65779        3.37724
H          3.73297        2.19256        2.04051
H          2.18722        2.65968        2.84260
H          4.86476        1.88698        4.20198
H          4.21880        3.55456        3.95938
H          3.37359        2.43937        5.06696
H          2.94609       -0.11913        5.43826
H          1.21075       -0.54222        5.65822
H          1.69687        1.16906        5.73490
H          4.52378        7.11628        2.28007
C          5.02763        8.59620        0.80105
C          4.86148        7.14255        1.22246
C          5.40797        8.70383       -0.67572
H          4.06047        9.11954        0.96696
H          5.80589        9.07333        1.43586
H          6.37021        8.17769       -0.85614
H          4.61629        8.22919       -1.29620
C          5.55372       10.16509       -1.09390
H          5.81416        6.57848        1.13371
H          4.59937       10.71125       -0.93255
H          6.35740       10.65664       -0.50490
H          5.81641       10.22058       -2.17099
C          1.11792        6.17164       -1.68928
C         -0.02375        5.43783       -1.94371
C          0.19875        4.17347       -1.44206
C          1.46769        4.19350       -0.89488
N          2.02987        5.40723       -1.06043
C          2.05526        3.11246       -0.05375
N          2.08090        1.79646       -0.70116
C          2.98119        1.51162       -1.83369
H         -0.95214        5.81026       -2.35780
H          1.21899        7.23848       -1.83960
H         -0.52183        3.36668       -1.39029
H          1.37428        3.01767        0.81624
H          3.05511        3.40412        0.31158
C          4.41851        1.48252       -1.31603
C          2.63557        0.11657       -2.40332
C          2.79714        2.51746       -2.98372
H          4.49498        0.72941       -0.49830
H          5.12240        1.20711       -2.12560
H          4.70921        2.46973       -0.90690
H          1.58299        0.07980       -2.76193
H          3.29149       -0.12608       -3.26840
H          2.78563       -0.68105       -1.65143
H          1.73266        2.53099       -3.31222
H          3.10523        3.53562       -2.68697
H          3.42400        2.23629       -3.85429
Mg         0.42173        1.15448       -1.00786
C         -2.26418        0.77840        0.05854
C         -2.99854       -0.29297        0.50591
C         -2.21299       -1.42178        0.32610
C         -1.00792       -0.98563       -0.21625
N         -1.07605        0.33456       -0.38154
C          0.15951       -1.84885       -0.59892
N          1.36823       -1.57857        0.22053
C          2.09695       -2.75661        0.74934
H         -3.98877       -0.25189        0.92074
H         -2.56315        1.81666        0.06011
H         -2.46426       -2.43658        0.57988
H         -0.17587       -2.89340       -0.48695
H          0.38971       -1.68605       -1.67296
C          2.34435       -3.85192       -0.31619
C          3.48231       -2.29270        1.24086
C          1.30011       -3.34882        1.92426
H          2.94592       -3.45535       -1.16171
H          2.91079       -4.69312        0.14249
H          1.41340       -4.29283       -0.71922
H          3.39441       -1.50272        2.00564
H          4.04648       -3.13600        1.69353
H          4.08362       -1.88674        0.39695
H          1.20589       -2.62748        2.74629
H          0.27253       -3.62309        1.61113
H          1.80571       -4.24802        2.33049
