110
speciation2285.ct
Na         0.93901        0.07445        0.02715
Mg         4.14831        1.67571        0.91890
C         -2.11573       -1.09845       -0.22276
C         -2.22122        1.19617        0.14427
O         -1.38099        0.07445        0.02715
C         -1.15333       -2.27282       -0.29740
C         -1.35782        2.41870        0.29997
H         -2.83329       -1.30298        0.60477
H         -2.64482       -1.02037       -1.19896
H         -2.83616        1.33374       -0.77325
H         -2.85950        1.11291        1.05261
H         -0.70379        2.50578       -0.59417
H         -1.98123        3.33177        0.39050
H         -0.74686        2.30277        1.21900
H         -0.65867       -2.42718        0.68112
H         -1.71539       -3.19297       -0.57272
H         -0.38576       -2.07776       -1.07454
H          5.84429        0.02020        2.14104
C          6.73031        1.82445        2.86116
C          6.05071        1.03874        1.75442
C          5.80874        1.97486        4.06611
H          7.65365        1.27699        3.16358
H          7.02255        2.82367        2.47415
H          4.89811        2.53070        3.75764
H          5.50938        0.97143        4.44398
C          6.51403        2.73362        5.18518
H          6.80344        0.93253        0.94889
H          7.40568        2.16798        5.53249
H          6.83628        3.73429        4.82664
H          5.81885        2.86435        6.03976
C          2.47196       -1.93172        4.13669
C          1.96960       -0.64607        4.05982
C          2.29684       -0.16738        2.80497
C          2.97351       -1.18879        2.17358
N          3.07576       -2.26702        2.98111
C          3.54880       -1.17694        0.79150
N          3.30901        0.07445        0.02715
C          3.89375       -0.03869       -1.36127
H          1.42936       -0.11605        4.83306
H          2.38428       -2.59488        4.99095
H          2.05607        0.81237        2.40895
H          3.03709       -2.02718        0.30781
H          4.62275       -1.39939        0.88704
C          3.40665       -1.30278       -2.11838
C          3.47793        1.18964       -2.18242
C          5.44526       -0.06390       -1.35459
H          2.29878       -1.34367       -2.14608
H          3.78875       -1.30434       -3.16288
H          3.80328       -2.23770       -1.66841
H          3.87082        2.11416       -1.71563
H          3.90717        1.13029       -3.20985
H          2.37515        1.25720       -2.26728
H          5.84664        0.88729       -0.96317
H          5.86890       -0.91710       -0.78760
H          5.83951       -0.16355       -2.38967
Na         3.78066       -7.53615        6.86281
Mg         3.98623       -4.02233        2.56073
C          0.79881       -7.92577        7.83913
C          1.96182       -6.51812        9.24983
O          2.06114       -7.65611        8.41564
C          0.89030       -9.14732        6.93686
C          3.31122       -6.20571        9.87884
H          0.06675       -8.17655        8.64169
H          0.42746       -7.06395        7.23982
H          1.61622       -5.62400        8.68265
H          1.26111       -6.72980       10.09023
H          4.04473       -5.92605        9.09828
H          3.20097       -5.35387       10.58425
H          3.68963       -7.08652       10.43804
H          1.27758      -10.01812        7.50766
H         -0.12102       -9.39774        6.54964
H          1.56263       -8.94100        6.07839
H          4.09994        4.32960        1.56164
C          2.69241        4.39954       -0.09645
C          3.96319        3.84524        0.57190
C          1.40236        3.97683        0.59500
H          2.73518        5.51207       -0.15561
H          2.64665        4.01598       -1.13853
H          0.55517        4.36386       -0.01251
H          1.37540        2.86824        0.61422
C          1.23712        4.52376        2.01012
H          4.81407        4.16330       -0.06844
H          2.04162        4.15164        2.67423
H          1.23953        5.63366        1.99573
H          0.26289        4.18319        2.42237
C          5.75596       -5.85980        1.08016
C          6.39779       -7.08266        1.06760
C          6.01055       -7.74110        2.21216
C          5.15459       -6.88575        2.87381
N          4.98457       -5.73603        2.17954
C          4.54002       -7.18205        4.20614
N          5.53723       -7.41360        5.27652
C          6.37303       -6.23027        5.66670
H          7.08720       -7.44852        0.32050
H          5.86258       -5.08945        0.32907
H          6.33606       -8.72040        2.53924
H          3.83653       -6.37741        4.49232
H          3.92935       -8.10293        4.10291
C          5.50272       -5.05466        6.16683
C          7.29667       -6.68103        6.80629
C          7.29675       -5.71075        4.53375
H          4.86576       -5.37171        7.01357
H          6.14193       -4.21103        6.50603
H          4.85077       -4.65170        5.36396
H          7.95681       -7.50485        6.45771
H          7.94465       -5.83953        7.14053
H          6.70658       -7.03656        7.67506
H          7.89405       -6.53445        4.08943
H          6.74412       -5.17827        3.74444
H          7.99790       -4.93996        4.91979
