110
speciation2058.ct
Na         5.33057        3.20325        3.21959
Mg         2.00096        4.84425       -0.91340
C          3.75812        2.30675        5.90622
C          5.83887        3.36304        6.23236
O          5.07869        2.49057        5.41300
C          2.93778        3.59191        6.10787
C          7.21536        3.58449        5.61720
H          3.22202        1.67371        5.16993
H          3.78454        1.72623        6.85529
H          5.38442        4.37239        6.30505
H          5.98084        2.91631        7.24067
H          7.11817        4.07011        4.62242
H          7.80931        4.25735        6.27317
H          7.75465        2.62169        5.50525
H          2.93469        4.20086        5.18756
H          1.89078        3.32796        6.36230
H          3.32625        4.20035        6.95106
H          0.68988        5.88733        1.29048
C          1.91751        4.40695        2.29959
C          1.08133        4.86666        1.10546
C          3.16808        5.24282        2.45212
H          1.32850        4.43233        3.24069
H          2.21395        3.35178        2.12764
H          3.81895        4.82705        3.24115
H          3.67978        5.15288        1.51208
C          2.91331        6.71243        2.75569
H          0.17263        4.23585        1.10146
H          2.33304        7.19915        1.94706
H          2.37096        6.80315        3.71825
H          3.88618        7.24073        2.82841
C          6.58897        4.72742        0.62413
C          6.66580        4.73664       -0.72766
C          5.67710        3.90926       -1.25002
C          5.00985        3.42734       -0.15473
N          5.58789        3.93129        0.97891
C          3.93221        2.39428       -0.24406
N          2.91592        2.73583       -1.26902
C          1.86974        1.69188       -1.46637
H          7.34981        5.25668       -1.27398
H          7.25611        5.22886        1.30751
H          5.48951        3.72011       -2.27959
H          4.43788        1.46082       -0.53053
H          3.51121        2.24404        0.76661
C          1.03397        1.48404       -0.18881
C          0.95547        2.17894       -2.59104
C          2.45812        0.32873       -1.93243
H          0.68602        2.45268        0.16918
H          0.14567        0.84584       -0.36665
H          1.63643        1.01451        0.61812
H          1.51261        2.30978       -3.54070
H          0.10962        1.47493       -2.75834
H          0.52251        3.13261       -2.31675
H          3.41092        0.46345       -2.47904
H          2.62620       -0.36746       -1.08496
H          1.76686       -0.19589       -2.63226
Na         6.61301        7.12307       -4.76620
Mg         4.01588        2.40703       -2.89447
C          3.12119        7.04508       -2.71484
C          4.45866        6.77080       -0.82428
O          3.17477        6.50596       -1.38707
C          3.85483        6.23916       -3.76427
C          4.77807        8.19579       -0.37780
H          2.09438        7.11345       -3.08358
H          3.47809        8.09810       -2.72156
H          4.55894        6.17080        0.05687
H          5.26880        6.51905       -1.51166
H          4.05072        8.57162        0.36375
H          5.78766        8.16647        0.09894
H          4.87075        8.88907       -1.23786
H          4.83244        5.93151       -3.40639
H          4.01719        6.87119       -4.66666
H          3.28247        5.33249       -4.03733
H          0.34198        5.64243       -2.99798
C         -0.58153        6.82427       -1.39427
C          0.12324        5.54602       -1.91479
C          0.30207        8.07826       -1.38106
H         -1.49819        7.01081       -1.99666
H         -0.89635        6.62435       -0.34824
H          1.18418        7.84401       -0.75558
H          0.60449        8.37378       -2.40484
C         -0.38241        9.29878       -0.76955
H         -0.64522        4.75928       -1.77768
H         -1.09730        9.75504       -1.48752
H         -0.91258        9.03351        0.16776
H          0.39491       10.05676       -0.52724
C          5.23166        0.81566       -4.97865
C          6.05290        0.77217       -6.08310
C          6.46740        2.05799       -6.32058
C          5.89885        2.85987       -5.34710
N          5.11583        2.07823       -4.51992
C          6.12879        4.38017       -5.35453
N          6.83330        5.05480       -4.21967
C          8.30539        4.90006       -4.04271
H          6.32536       -0.10284       -6.65883
H          4.74562       -0.03850       -4.52951
H          7.11721        2.38479       -7.12139
H          6.63689        4.67029       -6.29493
H          5.12792        4.82581       -5.47158
C          9.07156        4.98073       -5.37151
C          8.91130        6.09910       -3.21505
C          8.57568        3.54244       -3.37111
H          8.89537        5.97106       -5.84922
H         10.16293        4.88878       -5.17134
H          8.79050        4.17373       -6.06787
H          8.56390        6.37512       -2.22081
H          9.99806        5.93376       -3.05587
H          8.78362        7.05557       -3.76070
H          9.65614        3.39194       -3.18539
H          8.20968        2.71979       -4.01623
H          8.05521        3.43699       -2.40777
