110
speciation2161.ct
Na         0.32995       -5.65719       -2.02677
Mg         2.38444        0.50543       -2.43733
C          2.26604       -8.18808       -1.84374
C          2.12165       -7.34177       -3.97343
O          1.39198       -7.57759       -2.77947
C          1.55501       -8.46292       -0.52755
C          1.26196       -6.65241       -5.02091
H          2.58714       -9.18119       -2.23624
H          3.16195       -7.55860       -1.63678
H          3.01509       -6.70170       -3.78591
H          2.44195       -8.31419       -4.41435
H          0.97183       -5.63756       -4.67860
H          1.84988       -6.55511       -5.96065
H          0.35389       -7.25387       -5.23297
H          0.63452       -9.05874       -0.70107
H          2.23271       -9.04639        0.13453
H          1.29635       -7.51075       -0.02057
H          0.98772        2.72769       -1.03598
C          1.50910        1.85206        0.89536
C          1.22436        1.70904       -0.66081
C          2.76238        2.63404        1.33966
H          0.62547        2.32476        1.39448
H          1.62455        0.84034        1.32378
H          3.63429        2.16085        0.86698
H          2.68937        3.70579        1.04745
C          3.03242        2.54954        2.85864
H          0.27902        1.12668       -0.70704
H          2.28227        3.10179        3.46458
H          3.05489        1.49095        3.19905
H          4.03390        2.98349        3.08103
C          3.55209       -2.02910       -0.90387
C          3.32972       -3.30529       -0.37365
C          2.01818       -3.59340       -0.60064
C          1.48248       -2.49699       -1.25866
N          2.41740       -1.51735       -1.48080
C          0.01784       -2.47980       -1.67984
N         -0.75496       -3.69540       -1.25785
C         -2.19265       -3.60032       -1.67567
H          4.03840       -3.95361        0.12398
H          4.51296       -1.53320       -0.87166
H          1.51524       -4.50682       -0.31070
H         -0.06915       -2.36317       -2.76345
H         -0.37769       -1.57901       -1.17838
C         -2.31807       -3.83447       -3.20597
C         -2.97827       -4.66073       -0.90053
C         -2.87694       -2.23604       -1.34517
H         -2.20931       -2.88429       -3.77709
H         -3.31635       -4.24180       -3.47308
H         -1.54151       -4.53546       -3.57062
H         -2.84596       -4.49046        0.19278
H         -4.06724       -4.56425       -1.11718
H         -2.65244       -5.68502       -1.15483
H         -2.93675       -2.05295       -0.25965
H         -2.39609       -1.36481       -1.84151
H         -3.92630       -2.22548       -1.71514
Na        -0.51111       -0.60198       -3.90516
Mg        -0.41048       -3.48631        0.71781
C          4.79210        1.95249       -4.18307
C          4.72279        2.43449       -1.85346
O          4.10714        1.72572       -2.93319
C          6.06610        1.10025       -4.36592
C          5.33859        3.84650       -2.11824
H          4.09036        1.87685       -5.02883
H          5.06897        3.01245       -4.34973
H          3.90756        2.64918       -1.15747
H          5.49315        1.79547       -1.37771
H          4.63545        4.52373       -2.65383
H          5.59286        4.33340       -1.15264
H          6.29268        3.78911       -2.69123
H          6.76298        1.25002       -3.52177
H          6.57735        1.39952       -5.30896
H          5.88419        0.01247       -4.42355
H         -1.07531       -3.53628        3.28507
C          0.12139       -1.73301        3.39460
C         -0.12850       -3.15645        2.85278
C         -0.96047       -0.73151        2.96371
H          0.13785       -1.77204        4.51274
H          1.10555       -1.36937        3.04064
H         -1.96132       -1.02835        3.35336
H         -0.70375        0.26615        3.38450
C         -1.02161       -0.63742        1.44870
H          0.70905       -3.80964        3.19418
H         -0.02174       -0.45660        1.03011
H         -1.35755       -1.60604        1.05467
H         -1.71466        0.16649        1.12622
C         -1.05023        3.57954       -3.23915
C         -0.07832        4.43765       -3.70566
C          0.81286        3.68547       -4.44457
C          0.40125        2.41524       -4.42751
N         -0.78322        2.27028       -3.67629
C          1.05757        1.31137       -5.19572
N          1.43084        0.13271       -4.37431
C          2.06382       -0.94686       -5.24785
H         -0.03746        5.50553       -3.53495
H         -1.89929        3.86527       -2.63446
H          1.67434        4.06602       -4.98085
H          1.93103        1.74393       -5.71357
H          0.31287        1.01181       -5.96021
C          3.34067       -0.48522       -5.95070
C          2.49237       -2.14548       -4.39215
C          1.11621       -1.48078       -6.34827
H          4.00094       -0.20400       -5.15511
H          3.84118       -1.31181       -6.49960
H          3.19757        0.33784       -6.67706
H          1.63517       -2.62591       -3.91570
H          2.97873       -2.93445       -5.00476
H          3.25249       -1.82530       -3.65775
H          0.17554       -1.87263       -5.91460
H          0.88942       -0.71413       -7.11618
H          1.61264       -2.31316       -6.89974
