96
speciation1600.ct
Na         0.49861        0.89225       -0.37678
Mg        -4.04436        1.04774        4.12150
C         -3.06621        1.98147        6.50383
C         -5.29628        1.31661        6.88067
O         -4.18909        1.28914        5.99631
C         -2.35353        1.16026        7.57395
C         -6.56947        0.90418        6.16940
H         -2.35988        2.11797        5.65784
H         -3.31834        3.00609        6.86005
H         -5.12730        0.57815        7.69425
H         -5.46869        2.33154        7.30561
H         -6.45633       -0.11788        5.78319
H         -7.41521        0.89244        6.88852
H         -6.79764        1.60578        5.34055
H         -2.15063        0.13932        7.18564
H         -1.39365        1.64532        7.84445
H         -2.97972        1.08663        8.48743
H         -3.83726       -1.09531        2.57825
C         -5.13102       -1.90094        4.06976
C         -3.97503       -0.99303        3.66742
C         -6.42545       -1.49739        3.34866
H         -4.87229       -2.94526        3.78962
H         -5.25765       -1.86707        5.17104
H         -6.69026       -0.44758        3.59061
H         -6.28164       -1.56444        2.24862
C         -7.58281       -2.40876        3.75077
H         -3.04478       -1.33369        4.16871
H         -7.36434       -3.45830        3.45936
H         -7.75051       -2.36269        4.84810
H         -8.51142       -2.08308        3.23633
C         -3.98209        3.65990        2.88647
C         -3.52305        4.44189        1.85767
C         -2.77664        3.61599        1.04357
C         -2.85133        2.32736        1.57454
N         -3.57111        2.38378        2.72889
C         -2.24314        1.00860        1.08643
N         -1.56035        0.92386       -0.24246
C         -2.39589        0.97190       -1.48541
H         -3.69651        5.50334        1.73308
H         -4.59335        3.99402        3.71559
H         -2.26104        3.96338        0.16389
H         -3.02388        0.25119        1.11806
H         -1.53570        0.71860        1.86922
C         -2.89734        2.39013       -1.80993
C         -1.50787        0.54396       -2.67060
C         -3.63131        0.04826       -1.40512
H         -2.04731        3.10586       -1.85288
H         -3.40542        2.42008       -2.79602
H         -3.66875        2.71390       -1.08633
H         -1.10110       -0.47050       -2.51544
H         -2.08594        0.54776       -3.62107
H         -0.64803        1.23748       -2.78656
H         -3.34288       -0.99627       -1.21166
H         -4.32690        0.36332       -0.59899
H         -4.21526        0.09242       -2.35082
Mg        -0.36767       -0.95151       -0.30564
C         -0.37551       -3.88251        0.16565
C         -1.72147       -3.28444       -1.70782
O         -1.04931       -2.83646       -0.52923
C          0.60894       -4.70963       -0.67940
C         -2.92757       -4.19065       -1.39475
H          0.18018       -3.40528        0.97337
H         -1.09239       -4.54470        0.70287
H         -2.10830       -2.41908       -2.26278
H         -1.02983       -3.77185       -2.42435
H         -3.66505       -3.64984       -0.76550
H         -3.41594       -4.49810       -2.33989
H         -2.61500       -5.11530       -0.87081
H          1.33549       -4.04795       -1.20521
H          1.17796       -5.41197       -0.02534
H          0.08374       -5.34035       -1.42405
C          2.74246        0.18887       -4.27547
C          1.79252       -0.80887       -4.27801
C          1.70037       -1.30280       -2.98606
C          2.56329       -0.62928       -2.22882
N          3.25624        0.34590       -2.98064
C          2.86373       -0.89588       -0.78735
N          1.72548       -0.67482        0.13143
C          2.10408       -0.70193        1.58043
H          1.24367       -1.15112       -5.14479
H          3.05997        0.76358       -5.13802
H          1.07245       -2.11623       -2.65579
H          3.69877       -0.21295       -0.54132
H          3.22839       -1.94176       -0.70433
C          3.15132        0.38413        1.93499
C          0.85057       -0.40854        2.39739
C          2.67920       -2.07361        2.01621
H          2.80232        1.38763        1.60995
H          3.32090        0.41148        3.03389
H          4.14514        0.18301        1.48720
H          0.03781       -1.12210        2.14274
H          1.05331       -0.47467        3.48829
H          0.53732        0.63044        2.18033
H          1.97210       -2.89837        1.86724
H          3.61341       -2.32144        1.47372
H          2.92737       -2.05942        3.09998
