110
speciation2336.ct
Na         1.26724       -0.22845       -3.31240
Mg         2.30514        4.69099       -1.38622
C         -0.44910       -2.10365       -1.16930
C          0.62804       -3.40363       -2.82548
O          0.27514       -2.10421       -2.37450
C         -0.89078       -0.69158       -0.85763
C          1.45197       -4.23606       -1.82817
H         -1.37010       -2.71847       -1.27813
H          0.17437       -2.45361       -0.31781
H         -0.27688       -3.96526       -3.14653
H          1.25286       -3.26877       -3.73180
H          0.83188       -4.55731       -0.96396
H          2.33039       -3.66469       -1.46269
H          1.81332       -5.15877       -2.33141
H         -1.48284       -0.27035       -1.69655
H         -1.52517       -0.73223        0.04800
H         -0.00613       -0.04594       -0.67219
H          3.51260        7.28140       -1.37699
C          4.87156        6.21873       -2.65267
C          3.94986        6.27450       -1.45254
C          4.13708        6.51984       -3.94163
H          5.70638        6.94373       -2.53498
H          5.31537        5.20733       -2.69442
H          4.84571        6.37708       -4.78282
H          3.31778        5.79846       -4.02948
C          3.60047        7.94981       -3.99652
H          4.66735        6.25614       -0.61650
H          2.82160        8.12769       -3.22792
H          4.43575        8.66423       -3.83914
H          3.13993        8.13459       -4.98688
C          1.92409        2.02624       -5.52200
C          2.73031        3.04006       -5.99760
C          3.63132        3.32225       -4.99902
C          3.32791        2.47813       -3.95452
N          2.28072        1.68774       -4.27052
C          4.11912        2.36981       -2.69836
N          3.28843        2.66268       -1.52572
C          4.00766        2.37948       -0.24261
H          2.67955        3.50519       -6.96703
H          1.12867        1.54479       -6.07514
H          4.44341        4.03604       -5.04680
H          4.50161        1.32620       -2.66434
H          4.98824        3.05230       -2.73505
C          4.89316        3.57146        0.10409
C          2.91023        2.20242        0.76389
C          4.84924        1.08538       -0.11780
H          4.22871        4.42450        0.16952
H          5.38757        3.47246        1.09112
H          5.68537        3.73214       -0.66186
H          2.39830        1.22694        0.70430
H          3.31013        2.34350        1.79404
H          2.12190        2.88243        0.43248
H          4.23653        0.18634       -0.33979
H          5.76548        1.09191       -0.73867
H          5.18882        0.98684        0.94587
Na         1.86234        1.08088       -1.56584
Mg        -0.67410        4.16675        0.41801
C         -3.49002        4.11819       -0.08870
C         -2.73398        2.63610        1.58237
O         -2.41159        3.30473        0.37744
C         -4.09632        5.12469        0.91702
C         -1.57715        1.75010        2.01045
H         -3.11882        4.69358       -0.96005
H         -4.30090        3.46581       -0.47811
H         -2.91633        3.34207        2.41926
H         -3.61787        1.97877        1.41815
H         -0.68630        2.36158        2.26071
H         -1.87283        1.15137        2.89920
H         -1.30929        1.06658        1.19405
H         -3.35525        5.83206        1.31426
H         -4.86622        5.73714        0.40376
H         -4.60158        4.61393        1.76281
H         -0.10080        4.46972       -2.76899
C          0.69069        5.08692       -4.65412
C          0.74595        5.10084       -3.11845
C         -0.60297        5.63484       -5.29021
H          1.51373        5.69701       -5.06520
H          0.75399        4.05464       -4.96488
H         -1.47929        5.02613       -4.97789
H         -0.77125        6.68978       -4.98424
C         -0.48691        5.59387       -6.82102
H          0.52710        6.14465       -2.94492
H          0.37969        6.20373       -7.16297
H         -0.34533        4.54727       -7.16526
H         -1.40345        6.00182       -7.29714
C          4.53897        7.11490        2.43183
C          4.27980        6.65748        3.70047
C          3.26035        5.72232        3.60016
C          2.89505        5.61390        2.31732
N          3.69865        6.45571        1.52196
C          1.69347        4.78988        1.85062
N          1.10818        5.05099        0.45962
C          0.36513        6.43023        0.63068
H          4.76378        7.00439        4.60484
H          5.26022        7.88006        2.16819
H          2.79228        5.21390        4.43086
H          0.93689        4.88686        2.62643
H          1.79611        3.76070        2.15362
C          1.26431        7.70538        0.83697
C         -0.50341        6.77746       -0.58664
C         -0.64195        6.49085        1.83659
H          2.01601        7.80927        0.04055
H          0.65581        8.62245        0.82208
H          1.72798        7.74501        1.83883
H         -1.14265        5.92534       -0.88405
H         -1.17129        7.63564       -0.36551
H          0.12827        7.19273       -1.36346
H         -1.32678        5.63309        1.80091
H         -0.17557        6.51992        2.84996
H         -1.20672        7.44058        1.85375
