68
speciation136.ct
Na         0.12452        0.86146        0.00377
Li        -6.08053        1.78215        2.51988
C         -6.40977        4.19451        3.71837
C         -8.35868        2.88801        3.55577
O         -7.14297        3.26591        2.92628
C         -5.98193        3.68609        5.10849
C         -9.11240        1.86822        2.70583
H         -5.48405        4.43042        3.15480
H         -6.96022        5.15804        3.81670
H         -8.19555        2.41969        4.54930
H         -9.01256        3.78224        3.65268
H         -8.56681        0.90103        2.66781
H        -10.11031        1.68268        3.16028
H         -9.26070        2.24619        1.67301
H         -5.50776        2.68586        5.03346
H         -5.24915        4.39419        5.55211
H         -6.84182        3.63849        5.80994
C         -5.72730       -0.94381        2.15662
C         -4.91437       -2.03338        1.95522
C         -3.65301       -1.53957        1.70058
C         -3.76572       -0.15703        1.71391
N         -5.03014        0.19773        2.04190
C         -2.66405        0.81262        1.38794
N         -1.95239        0.46019        0.12357
C         -2.58885        0.51589       -1.20088
H         -5.21783       -3.06989        1.99820
H         -6.78411       -0.97254        2.38627
H         -2.76805       -2.13012        1.49913
H         -1.95433        0.80436        2.23023
H         -3.05641        1.84810        1.35010
C         -3.08582        1.93294       -1.49049
C         -1.52603        0.13177       -2.26516
C         -3.73581       -0.49765       -1.31049
H         -2.23376        2.64850       -1.47830
H         -3.56744        1.96337       -2.48876
H         -3.83093        2.24700       -0.73381
H         -1.09913       -0.87728       -2.07565
H         -1.97015        0.09493       -3.28106
H         -0.68344        0.85738       -2.28004
H         -3.35323       -1.53115       -1.14963
H         -4.54509       -0.28035       -0.59712
H         -4.20604       -0.44035       -2.30913
Na        -0.25638       -0.79343       -0.07787
C          2.35306       -0.37624       -4.03343
C          2.15805        0.92000       -3.61372
C          2.31240        0.93842       -2.23376
C          2.57664       -0.30833       -1.82385
N          2.62028       -1.19469       -2.92402
C          2.83348       -0.75700       -0.40129
N          1.69995       -0.43746        0.48827
C          1.73898       -0.77516        1.92430
H          1.92745        1.75841       -4.26024
H          2.30503       -0.72226       -5.05879
H          2.23027        1.81524       -1.60575
H          3.75305       -0.25482       -0.03995
H          3.00847       -1.85148       -0.42981
C          2.83339        0.02498        2.63044
C          0.39000       -0.36460        2.55136
C          1.92938       -2.28671        2.14381
H          2.63002        1.11335        2.52162
H          2.83488       -0.22207        3.71396
H          3.83011       -0.20745        2.21446
H         -0.45709       -0.90243        2.07588
H          0.33852       -0.59883        3.63397
H          0.23677        0.73010        2.42781
H          1.03888       -2.85394        1.79243
H          2.82650       -2.66334        1.61867
H          2.06406       -2.49791        3.22624
