110
speciation1993.ct
Na         1.00213       -0.18857       -0.00360
Mg        -0.48160       -2.63994       -5.64346
C          1.00044        1.32017        2.70535
C         -1.15715        0.42036        2.18083
O          0.11382        0.84392        1.69506
C          1.17670        0.40380        3.93499
C         -2.02957        1.57924        2.67704
H          1.99196        1.43602        2.23260
H          0.71175        2.34570        3.02615
H         -1.70494       -0.06052        1.34513
H         -1.06672       -0.35788        2.96599
H         -2.24665        2.28482        1.85067
H         -2.99294        1.17303        3.05995
H         -1.54727        2.12671        3.51327
H          1.45055       -0.62121        3.61877
H          1.98081        0.80888        4.58426
H          0.25496        0.37835        4.55405
H          0.27457       -3.23774       -8.24603
C          0.65726       -1.10101       -8.16629
C         -0.17436       -2.33851       -7.78396
C          2.09031       -1.18379       -7.64002
H          0.68750       -1.01303       -9.28007
H          0.15374       -0.20689       -7.76191
H          2.08513       -1.32077       -6.54340
H          2.61259       -2.04503       -8.11471
C          2.86579        0.09536       -7.96358
H         -1.17995       -2.22751       -8.24201
H          2.87827        0.28879       -9.05625
H          2.39898        0.96245       -7.44618
H          3.91431       -0.00157       -7.60810
C         -0.94174        0.25911       -4.97515
C         -0.87767        1.15523       -3.92619
C         -0.44540        0.44608       -2.82705
C         -0.26704       -0.85485       -3.25350
N         -0.57042       -0.97058       -4.57083
C          0.22155       -1.99833       -2.41585
N         -0.20385       -1.88186       -1.00799
C          0.21317       -3.01095       -0.12741
H         -1.11873        2.20972       -3.95654
H         -1.24727        0.50156       -5.98400
H         -0.28296        0.83685       -1.83190
H          1.32361       -2.01163       -2.49713
H         -0.15008       -2.92611       -2.86270
C          1.74644       -3.20099       -0.12855
C         -0.20617       -2.67381        1.31063
C         -0.46653       -4.34057       -0.51922
H          2.25226       -2.25276        0.14841
H          2.05004       -3.97278        0.61113
H          2.11677       -3.54341       -1.11470
H         -1.30523       -2.52711        1.37623
H          0.08502       -3.48453        2.01415
H          0.31052       -1.75524        1.64449
H         -1.57137       -4.24777       -0.46840
H         -0.16966       -4.67356       -1.53223
H         -0.15238       -5.14594        0.18216
Na         1.57091       -3.51945       -5.69233
Mg        -2.16035       -1.56581       -0.82815
C          3.55105        0.22152       -1.71668
C          4.13592        0.03729        0.58829
O          3.11412        0.32948       -0.36380
C          4.27732       -1.08775       -2.08650
C          5.27740        1.07445        0.59668
H          2.65174        0.29255       -2.35923
H          4.18234        1.09434       -1.99601
H          3.68775        0.05127        1.60252
H          4.53581       -0.98717        0.46777
H          4.89788        2.08215        0.86577
H          6.04601        0.77937        1.34503
H          5.79345        1.13429       -0.38376
H          3.66050       -1.96091       -1.81619
H          4.46938       -1.11473       -3.17853
H          5.26648       -1.16842       -1.58787
H         -4.63335       -2.12789       -0.16871
C         -4.87825       -0.84905       -1.93635
C         -4.16600       -1.24181       -0.64379
C         -4.71327       -1.88887       -3.04033
H         -5.95653       -0.67823       -1.73040
H         -4.43500        0.10373       -2.30017
H         -5.22199       -1.52633       -3.95839
H         -3.63770       -1.95597       -3.26816
C         -5.29097       -3.25958       -2.67273
H         -4.25949       -0.39585        0.06966
H         -4.79305       -3.68662       -1.77795
H         -6.38080       -3.17188       -2.47692
H         -5.13368       -3.96932       -3.51090
C         -1.93533       -4.45618       -3.81684
C         -2.17821       -5.75619       -3.43928
C         -1.41676       -6.54177       -4.26271
C         -0.73574       -5.67764       -5.10776
N         -1.05527       -4.39554       -4.83815
C          0.18722       -6.10716       -6.19340
N          1.56233       -5.63571       -5.95259
C          2.54839       -6.04380       -6.98643
H         -2.84355       -6.08441       -2.65073
H         -2.37631       -3.59971       -3.35571
H         -1.36697       -7.62274       -4.25300
H          0.16372       -7.21283       -6.22431
H         -0.22781       -5.68978       -7.12904
C          2.15985       -5.51229       -8.37988
C          3.91643       -5.43711       -6.62435
C          2.70423       -7.57970       -7.03234
H          2.11216       -4.40750       -8.35866
H          2.91857       -5.80272       -9.13535
H          1.19111       -5.91918       -8.73226
H          4.28930       -5.83407       -5.65685
H          4.66597       -5.68393       -7.40993
H          3.85089       -4.33020       -6.55216
H          2.99109       -7.96796       -6.03101
H          1.77322       -8.08539       -7.35534
H          3.49194       -7.86851       -7.76013
