110
speciation2619.ct
Na         1.00728       -0.08522        0.05182
Mg        -2.16506       -3.04272        4.83259
C          0.46397       -3.36821        4.95369
C         -0.34232       -3.51991        7.18204
O         -0.51517       -2.93903        5.88236
C          0.55880       -4.89203        4.75406
C          0.92033       -3.01086        7.90271
H          0.16566       -2.91593        3.99505
H          1.45267       -2.91935        5.16746
H         -1.21331       -3.26244        7.82048
H         -0.30136       -4.62108        7.16306
H          0.84323       -1.92449        8.11174
H          1.05050       -3.55165        8.86560
H          1.84030       -3.20174        7.31306
H         -0.43568       -5.31561        4.51625
H          1.23666       -5.11481        3.90763
H          0.98583       -5.40223        5.64262
H          0.02423        4.06632       -1.99107
C         -0.49629        6.15579       -1.85418
C          0.25708        4.92622       -1.32670
C         -0.03105        6.54845       -3.25947
H         -1.58612        5.92006       -1.88343
H         -0.34444        7.00873       -1.15943
H          1.04878        6.80339       -3.22173
H         -0.17833        5.69776       -3.96064
C         -0.80908        7.75477       -3.79043
H         -0.14244        4.68469       -0.31881
H         -1.88918        7.51177       -3.89272
H         -0.69737        8.62401       -3.10793
H         -0.41834        8.03942       -4.79057
C         -2.15881        0.45992       -0.88106
C         -3.44591        0.56953       -0.39233
C         -3.42744        0.07726        0.90019
C         -2.12884       -0.33356        1.14636
N         -1.36272       -0.08522        0.05182
C         -1.62481       -0.94974        2.45054
N         -2.35177       -2.19878        2.83747
C         -2.38161       -3.30276        1.82859
H         -4.29138        1.00296       -0.90864
H         -1.81167        0.82146       -1.83965
H         -4.26286        0.04049        1.58627
H         -0.53460       -1.14648        2.37921
H         -1.76077       -0.20030        3.25964
C         -0.96344       -3.74860        1.41651
C         -3.11703       -4.46345        2.49415
C         -3.17446       -2.97321        0.53386
H         -0.38292       -4.10428        2.27959
H         -1.01564       -4.58528        0.68906
H         -0.40809       -2.92045        0.92503
H         -4.15078       -4.14864        2.75999
H         -3.17492       -5.33759        1.81176
H         -2.58691       -4.76473        3.41612
H         -4.17977       -2.56390        0.76844
H         -2.63719       -2.29850       -0.15374
H         -3.30697       -3.88489       -0.08404
Na         1.32722        1.68122       -1.61581
Mg         2.41393        4.83558       -1.17457
C         -4.71339       -2.99620        6.05159
C         -3.75769       -5.08059        6.52939
O         -3.70739       -3.92753        5.68910
C         -4.49309       -2.36792        7.43416
C         -2.80756       -6.17302        6.07511
H         -4.69481       -2.18686        5.29499
H         -5.72993       -3.44924        5.98015
H         -3.49642       -4.84139        7.58208
H         -4.77575       -5.53430        6.48528
H         -1.77083       -5.83926        6.19417
H         -2.94027       -7.06950        6.71979
H         -2.99668       -6.45631        5.02196
H         -3.46474       -1.95861        7.50439
H         -5.22533       -1.54975        7.59419
H         -4.65276       -3.10637        8.24817
H          2.43664        7.52184       -0.58844
C          4.48216        7.54759       -1.28399
C          3.29130        6.81261       -0.62560
C          4.17946        8.03163       -2.70892
H          4.73237        8.44221       -0.66627
H          5.37135        6.88328       -1.28911
H          3.92296        7.16170       -3.34732
H          3.31737        8.73484       -2.69015
C          5.38355        8.76041       -3.31843
H          3.58437        6.60742        0.42756
H          5.64285        9.66576       -2.72661
H          6.26880        8.09006       -3.35291
H          5.14683        9.08127       -4.35573
C          4.18964       -1.13317        0.12309
C          5.50338       -0.74208        0.21717
C          5.49246        0.63071        0.18887
C          4.17173        1.01561        0.07197
N          3.37728       -0.08522        0.05182
C          3.69886        2.46807        0.00488
N          3.06748        2.87865       -1.27795
C          3.88888        2.82872       -2.51358
H          6.37952       -1.37640        0.32032
H          3.85052       -2.17731        0.15892
H          6.35797        1.28497        0.24139
H          2.97591        2.62375        0.83130
H          4.55519        3.14330        0.21577
C          4.23690        1.38433       -2.95194
C          3.03853        3.43044       -3.65232
C          5.17136        3.66754       -2.36308
H          3.31768        0.75882       -3.02224
H          4.72927        1.38524       -3.94552
H          4.96253        0.88163       -2.29470
H          2.74848        4.47487       -3.42441
H          3.61000        3.42419       -4.60877
H          2.11541        2.82913       -3.80524
H          4.91094        4.69759       -2.05592
H          5.85111        3.22766       -1.60379
H          5.73139        3.70571       -3.32162
