96
speciation1299.ct
Na         1.07154       -0.17954        0.04945
Mg         1.42740       -4.95015       -3.60973
C          0.68079        1.08370        2.85982
C         -1.35382        0.23981        1.96785
O         -0.06048        0.76869        1.68140
C          0.84758       -0.06726        3.86823
C         -2.31979        1.24936        2.61130
H          1.69371        1.39480        2.53936
H          0.25242        1.97700        3.36580
H         -1.79266       -0.10735        1.01532
H         -1.31154       -0.65436        2.61036
H         -2.50296        2.11398        1.94333
H         -3.28937        0.75094        2.82279
H         -1.94621        1.61356        3.58868
H          1.29672       -0.94920        3.37224
H          1.51482        0.25297        4.69417
H         -0.11482       -0.34963        4.34563
H          3.89505       -5.64387       -4.16184
C          3.04431       -7.45541       -3.32372
C          3.22326       -5.93196       -3.32905
C          2.13413       -7.89516       -2.16719
H          2.60264       -7.75925       -4.29329
H          4.03904       -7.92663       -3.20809
H          2.57860       -7.58400       -1.19453
H          1.13632       -7.41713       -2.27164
C          1.96219       -9.41380       -2.16048
H          3.67890       -5.59602       -2.36986
H          1.51038       -9.75562       -3.11597
H          2.94468       -9.91480       -2.02388
H          1.29450       -9.71192       -1.32531
C         -1.44773       -4.65696       -4.21910
C         -2.53062       -3.82879       -4.00969
C         -2.06085       -2.72794       -3.32523
C         -0.70742       -2.93253       -3.14075
N         -0.33180       -4.10091       -3.70650
C          0.20961       -2.02832       -2.36546
N         -0.18393       -1.91893       -0.94345
C         -0.05554       -3.18429       -0.12224
H         -3.55737       -4.02354       -4.29500
H         -1.47544       -5.62805       -4.69829
H         -2.64940       -1.89317       -2.97341
H          0.16270       -1.02194       -2.82722
H          1.26168       -2.37121       -2.44830
C          1.38969       -3.72289       -0.09248
C         -0.47120       -2.86058        1.31419
C         -1.00590       -4.33572       -0.55661
H          2.08647       -2.95626        0.30233
H          1.45043       -4.62126        0.56272
H          1.72534       -4.04651       -1.09804
H         -1.52780       -2.51812        1.33460
H         -0.40538       -3.75965        1.96841
H          0.19770       -2.09063        1.73304
H         -2.06033       -3.99150       -0.62808
H         -0.70058       -4.82835       -1.48667
H         -0.97361       -5.16939        0.18015
Mg        -2.14042       -1.58877       -0.79105
C         -4.41133       -0.02859       -1.24377
C         -4.55111       -1.46570        0.66769
O         -4.04776       -1.26690       -0.64247
C         -4.04160        1.23006       -0.45242
C         -6.07851       -1.58182        0.71082
H         -3.87615        0.03249       -2.21372
H         -5.48911       -0.02534       -1.50696
H         -4.14495       -2.43009        1.03841
H         -4.19772       -0.69117        1.36710
H         -6.42049       -2.41944        0.06745
H         -6.40392       -1.77544        1.75481
H         -6.56590       -0.64166        0.38058
H         -2.95208        1.26054       -0.27135
H         -4.30711        2.12954       -1.04516
H         -4.60051        1.29349        0.50375
C          7.82770       -0.03046       -0.82666
C          7.51944       -0.04520        0.51534
C          6.14483       -0.18202        0.62621
C          5.62711       -0.24000       -0.60368
N          6.65278       -0.15113       -1.58236
C          4.15622       -0.39124       -0.93443
N          3.28164        0.64512       -0.33129
C          3.45951        2.04322       -0.84557
H          8.23575        0.03411        1.32490
H          8.82382        0.06137       -1.24234
H          5.58425       -0.22335        1.54936
H          3.83936       -1.37304       -0.53097
H          4.01555       -0.44392       -2.03318
C          3.38933        2.12425       -2.38708
C          2.33629        2.90563       -0.24702
C          4.80897        2.69134       -0.39595
H          2.45123        1.66895       -2.76258
H          3.42642        3.18367       -2.72673
H          4.25822        1.62182       -2.86389
H          2.46874        2.99645        0.85324
H          2.35937        3.93143       -0.67479
H          1.34741        2.44844       -0.46045
H          4.93026        2.63856        0.70742
H          5.69317        2.23422       -0.87456
H          4.85048        3.76207       -0.69318
