96
speciation1089.ct
Na         5.07635       -0.71765        2.52178
Mg         4.07856        4.53185        0.83230
C          5.20112       -2.82118        0.37844
C          3.02851       -2.48556        1.19253
O          4.41067       -2.43358        1.49903
C          5.10953       -1.86252       -0.81692
C          2.20547       -2.15492        2.42550
H          6.25875       -2.85033        0.71248
H          4.96483       -3.86240        0.05345
H          2.75002       -1.75674        0.40231
H          2.75087       -3.51836        0.88952
H          2.36141       -1.10044        2.69205
H          1.12649       -2.29568        2.20445
H          2.48933       -2.80018        3.28282
H          5.26344       -0.82243       -0.47306
H          5.88628       -2.12271       -1.56933
H          4.12657       -1.93431       -1.32760
H          6.71304        4.98830        0.02255
C          7.11866        2.88354        0.15387
C          6.35383        4.14230        0.64469
C          6.69945        2.43270       -1.24134
H          8.21354        3.06894        0.18155
H          7.00185        2.02336        0.82719
H          5.59904        2.27562       -1.26583
H          6.97319        3.20695       -1.98949
C          7.39380        1.11034       -1.57749
H          6.72885        4.33399        1.67378
H          7.05265        0.72564       -2.56011
H          7.15801        0.34893       -0.80413
H          8.49454        1.24850       -1.59617
C          1.73781        3.11313        2.23232
C          1.45110        2.04760        3.03814
C          2.64766        1.47913        3.36566
C          3.62912        2.25982        2.78415
N          3.06916        3.21428        2.02006
C          5.10798        2.16792        2.86475
N          5.70869        1.07377        3.64269
C          5.81784        1.21449        5.12839
H          0.47105        1.72121        3.35145
H          0.97811        3.75451        1.82696
H          2.74258        0.60559        3.97626
H          5.52476        3.14954        3.15773
H          5.31505        1.97070        1.82226
C          4.50318        0.82007        5.77644
C          6.90412        0.24860        5.64255
C          6.18657        2.64590        5.61966
H          4.20960       -0.19145        5.41582
H          4.57567        0.80221        6.87780
H          3.74819        1.59421        5.55714
H          7.91675        0.56263        5.31077
H          6.90671        0.23450        6.75635
H          6.71359       -0.78367        5.28360
H          7.18798        2.96981        5.26593
H          5.43289        3.39885        5.30962
H          6.19451        2.67491        6.73255
Mg         2.62032        8.61085        5.50523
C          3.32439        4.61775       -2.39960
C          1.83315        4.89550       -0.59475
O          3.11724        4.46840       -0.97702
C          2.88154        5.95183       -3.05286
C          0.72832        3.90043       -0.95767
H          4.39801        4.46401       -2.62635
H          2.80096        3.79356       -2.94361
H          1.89291        5.02964        0.48593
H          1.59862        5.92394       -0.91720
H          0.94767        2.88130       -0.57206
H         -0.22014        4.25753       -0.50613
H          0.58943        3.85000       -2.05702
H          3.30604        6.81884       -2.51007
H          3.21622        5.99162       -4.11277
H          1.77128        6.04127       -3.08956
C          4.02233        7.41515        1.00830
C          3.94155        8.57248        1.74762
C          3.73325        8.19410        3.04756
C          3.66881        6.81137        3.06344
N          3.85036        6.32918        1.78836
C          3.51158        5.99942        4.34759
N          2.62122        6.66200        5.34765
C          2.52404        6.05641        6.70923
H          4.04577        9.58777        1.38569
H          4.21158        7.37013       -0.05483
H          3.65594        8.87370        3.88003
H          3.13213        4.98779        4.10584
H          4.53261        5.90781        4.76129
C          3.90195        5.79775        7.35773
C          1.78227        7.04340        7.65057
C          1.74115        4.73434        6.63485
H          4.48175        6.74109        7.44301
H          3.77014        5.37895        8.38154
H          4.48991        5.05597        6.78850
H          0.76419        7.29854        7.29092
H          1.68175        6.61290        8.67449
H          2.35802        7.99069        7.75810
H          0.75171        4.89475        6.15551
H          2.30540        3.98160        6.04549
H          1.57608        4.31556        7.65186
