96
speciation1102.ct
Na         1.28650        1.53324        0.14362
Mg         3.68410       -0.43074       -1.74335
C          0.18199        2.59811        3.11685
C          2.37294        3.27390        2.44053
O          1.23131        2.47866        2.14162
C         -0.28717        4.04253        3.36225
C          3.16743        2.80850        3.68209
H         -0.69526        2.01724        2.75979
H          0.47256        2.11567        4.08163
H          3.04508        3.23659        1.58202
H          2.11696        4.33048        2.50457
H          3.63310        1.81978        3.53108
H          3.99733        3.52833        3.86365
H          2.55185        2.77593        4.60391
H         -0.57494        4.50951        2.39812
H         -1.15093        4.06027        4.05654
H          0.50343        4.65423        3.85096
H          2.20448       -2.46482       -2.87661
C          4.02689       -3.04347       -3.77687
C          3.16528       -1.98869       -3.13065
C          4.54042       -4.05389       -2.76843
H          3.40188       -3.56093       -4.54352
H          4.88244       -2.55621       -4.29163
H          5.19347       -3.53426       -2.04062
H          3.68528       -4.52292       -2.22554
C          5.32013       -5.13422       -3.50357
H          2.94658       -1.36404       -3.95860
H          4.65011       -5.67962       -4.20435
H          6.14896       -4.67555       -4.08527
H          5.74180       -5.85354       -2.77384
C         -1.66430        0.56391       -0.05786
C         -2.24794       -0.67610       -0.20236
C         -1.21654       -1.59961       -0.23455
C         -0.04286       -0.87600       -0.11826
N         -0.33407        0.43682       -0.00670
C          1.36336       -1.44116       -0.12487
N          2.43018       -0.38192       -0.12939
C          3.40327       -0.49127        0.98914
H         -3.30823       -0.88195       -0.27934
H         -2.17671        1.51361       -0.00514
H         -1.31908       -2.67156       -0.34456
H          1.47201       -2.05795       -1.01109
H          1.44840       -2.15245        0.71414
C          4.23703       -1.79345        0.94565
C          4.39117        0.67745        0.83399
C          2.68912       -0.43476        2.35412
H          4.76762       -1.89719       -0.01449
H          4.99106       -1.77711        1.76954
H          3.60336       -2.69007        1.10199
H          3.86827        1.60964        0.57693
H          5.02968        0.81430        1.73050
H          5.08433        0.47835        0.00639
H          1.97701        0.38573        2.38959
H          2.10811       -1.34960        2.57214
H          3.42373       -0.34325        3.17968
Mg        -0.67883       -0.21946       -5.60976
C          4.86423        1.82384       -3.14558
C          6.35457        0.04777       -2.54049
O          5.15362        0.74495       -2.25823
C          5.20649        1.54784       -4.62436
C          7.59540        0.94183       -2.41542
H          3.78184        2.02652       -3.05018
H          5.36235        2.76129       -2.81106
H          6.45674       -0.75427       -1.78501
H          6.30676       -0.46353       -3.52170
H          7.69142        1.34194       -1.38143
H          8.50046        0.34198       -2.67426
H          7.57782        1.79877       -3.11182
H          4.84781        0.54579       -4.89100
H          4.78537        2.32309       -5.27855
H          6.28583        1.53816       -4.82870
C          0.96285        4.21050       -1.42307
C          0.53709        4.88037       -2.54481
C          0.08006        3.92735       -3.41667
C          0.30825        2.70472       -2.81186
N          0.79980        2.88002       -1.56102
C          0.01360        1.39123       -3.48541
N          0.01143        1.50063       -4.98019
C          1.33316        1.61409       -5.68247
H          0.54068        5.94820       -2.72852
H          1.36655        4.68448       -0.54063
H         -0.33933        4.10069       -4.39931
H          0.69022        0.60385       -3.10845
H         -0.99578        1.06285       -3.15451
C          2.22059        0.47621       -5.25814
C          1.14953        1.44024       -7.19683
C          2.02790        2.97378       -5.45357
H          1.64683       -0.47238       -5.35835
H          3.09373        0.38341       -5.92774
H          2.54184        0.63733       -4.21448
H          0.48094        2.21988       -7.60991
H          2.14222        1.52951       -7.70664
H          0.75240        0.43211       -7.44010
H          1.36502        3.80031       -5.77871
H          2.32127        3.11969       -4.40280
H          2.94009        3.06608       -6.06655
