110
speciation2511.ct
Na         1.34566       -0.66284        0.28381
Mg         4.11626       -0.43949        1.87750
C          3.86414        1.04121        4.52944
C          1.83052        1.27066        3.37902
O          3.23967        0.98104        3.24055
C          3.21676        0.18482        5.64481
C          1.54139        2.73868        3.79056
H          4.90462        0.73500        4.40517
H          3.96330        2.09242        4.87794
H          1.29347        1.07005        2.45041
H          1.30739        0.57744        4.06476
H          1.99294        3.45638        3.07411
H          0.44490        2.92153        3.82353
H          1.91948        2.97327        4.80987
H          3.05576       -0.85403        5.29977
H          3.86256        0.17238        6.54627
H          2.24549        0.61098        5.98193
H          3.41953       -2.40552        3.62760
C          3.49156       -3.56092        1.80525
C          3.18843       -2.25967        2.55493
C          2.66912       -4.78009        2.25581
H          3.26336       -3.43472        0.75279
H          4.57452       -3.78677        1.88839
H          2.95547       -5.62374        1.60194
H          2.91022       -5.05507        3.30240
C          1.15707       -4.59883        2.09761
H          2.11378       -2.00568        2.43939
H          0.77337       -3.84955        2.81881
H          0.90274       -4.28314        1.06225
H          0.64726       -5.56540        2.30003
C          6.54006       -2.36686       -2.99046
C          6.98498       -1.32466       -2.20602
C          5.90493       -0.92347       -1.49367
C          4.84173       -1.67871       -1.87594
N          5.22568       -2.61345       -2.78234
C          3.47101       -1.41698       -1.30917
N          3.38264       -0.30067       -0.29069
C          3.24377        1.09010       -0.87829
H          7.98039       -0.89226       -2.13198
H          7.16593       -2.90433       -3.68440
H          5.83318       -0.17642       -0.76955
H          3.08549       -2.34420       -0.89177
H          2.79065       -1.25030       -2.15776
C          2.06734        1.19157       -1.89165
C          2.94383        2.00148        0.29046
C          4.48117        1.69004       -1.59244
H          1.11700        0.80837       -1.46804
H          1.90266        2.25114       -2.18560
H          2.28135        0.66074       -2.84212
H          3.75387        1.90059        1.04419
H          2.85324        3.06678        0.00168
H          1.97684        1.69252        0.68528
H          5.34619        1.82777       -0.91451
H          4.75077        1.10812       -2.49909
H          4.24740        2.71271       -1.95928
Na         7.37523       -5.21808        0.67194
Mg         4.32512       -4.16051       -3.76634
C          7.40007       -0.40085        1.38963
C          6.66465       -1.11498        3.50781
O          6.24348       -0.64636        2.21255
C          8.11407       -1.69475        0.93241
C          7.77234       -0.27474        4.21324
H          7.17494        0.26909        0.56527
H          8.12665        0.28111        1.85561
H          5.79055       -1.13347        4.17691
H          6.98748       -2.17532        3.45871
H          7.49779        0.80146        4.24598
H          7.94771       -0.63594        5.24565
H          8.76504       -0.37904        3.71778
H          7.45181       -2.34165        0.32304
H          9.01494       -1.43774        0.33430
H          8.47315       -2.29479        1.79468
H          1.58451       -3.73414       -4.71764
C          1.23972       -5.57361       -3.64826
C          2.16736       -4.64898       -4.47000
C          2.04038       -6.77523       -3.17223
H          0.85956       -5.01177       -2.77055
H          0.35126       -5.91261       -4.24050
H          2.23942       -7.46912       -4.01979
H          2.98961       -6.35624       -2.80803
C          1.39736       -7.51940       -1.99911
H          2.38579       -5.16372       -5.42770
H          1.27819       -6.82689       -1.13647
H          0.41192       -7.95123       -2.26616
H          2.07114       -8.34217       -1.67564
C          5.68021       -6.26066       -5.31875
C          6.70945       -7.17508       -5.41764
C          7.40407       -7.10970       -4.23739
C          6.76892       -6.15970       -3.45940
N          5.70262       -5.62908       -4.12477
C          7.27160       -5.78925       -2.08672
N          6.32356       -6.06227       -0.99371
C          6.04743       -7.47681       -0.61745
H          6.93740       -7.81356       -6.26332
H          4.95902       -6.05527       -6.09627
H          8.28707       -7.68509       -3.97891
H          8.23813       -6.29593       -1.87710
H          7.51043       -4.71026       -2.08426
C          7.32724       -8.28323       -0.32035
C          5.19492       -7.45069        0.66241
C          5.22176       -8.19231       -1.69292
H          7.91269       -7.80609        0.49326
H          7.05797       -9.31336        0.00450
H          7.96439       -8.39003       -1.22065
H          4.23404       -6.94322        0.45642
H          4.96362       -8.48221        1.00937
H          5.71601       -6.91637        1.48519
H          4.33414       -7.59084       -1.88938
H          5.77057       -8.34225       -2.63487
H          4.88165       -9.19079       -1.34967
