95
speciation1811.ct
Na        -0.48486       -2.04920        0.14484
Mg         2.34508       -3.66284        1.17051
C          2.97077       -6.36161        0.93181
C          4.93213       -4.99384        1.20530
O          3.58571       -5.09418        0.75134
C          2.65931       -6.75049        2.38513
C          5.13574       -4.90511        2.73100
H          1.98909       -6.28583        0.42014
H          3.52454       -7.16869        0.40635
H          5.58049       -5.77946        0.76290
H          5.31729       -4.04776        0.77312
H          5.12157       -5.88640        3.22537
H          6.14889       -4.50466        2.94312
H          4.38799       -4.25166        3.21678
H          2.21466       -5.90051        2.94299
H          1.94492       -7.59846        2.39947
H          3.54626       -7.13747        2.91063
H          3.34680        4.33652        4.13563
C          4.60368        3.58143        2.54507
C          3.78599        3.36694        3.82263
C          3.72992        3.98256        1.36573
H          5.35828        4.37949        2.74078
H          5.14806        2.64503        2.29558
H          3.03896        3.14632        1.16295
H          3.15190        4.89942        1.61190
C          4.56134        4.24479        0.11118
H          4.53197        3.01947        4.56591
H          5.23555        5.11476        0.26524
H          5.17147        3.35351       -0.14884
H          3.88286        4.46920       -0.73884
C          4.33321       -0.15809        4.04782
C          4.87392       -1.30011        3.50155
C          4.00838       -1.68707        2.50991
C          2.97489       -0.78853        2.50591
N          3.17025        0.18071        3.45358
C          1.80035       -0.89813        1.56716
N          1.07247       -2.19461        1.60048
C          0.40781       -2.50728        2.91552
H          5.79198       -1.79513        3.78373
H          4.80288        0.39912        4.84914
H          4.10809       -2.51214        1.84025
H          2.19121       -0.76547        0.53587
H          1.12082       -0.08353        1.80656
C         -0.54033       -1.37699        3.38135
C         -0.42961       -3.78081        2.73009
C          1.41271       -2.79220        4.06267
H         -1.29399       -1.14115        2.60191
H         -1.06983       -1.66686        4.31484
H          0.02590       -0.46003        3.63657
H          0.21139       -4.62726        2.41075
H         -0.92249       -4.06224        3.68961
H         -1.22481       -3.62193        1.97442
H          2.16983       -3.54029        3.75514
H          1.91972       -1.87994        4.42687
H          0.88926       -3.17413        4.96360
Na         0.78703       -0.12470        6.14340
Mg         2.21538        1.91697        4.07977
H         -0.27518        1.66907        2.94133
C          0.24965        2.85899        1.23255
C          0.46559        2.46204        2.71090
C          0.57816        1.78437        0.19752
H         -0.82096        3.13539        1.10501
H          0.84933        3.76646        1.02215
H          1.64564        1.51196        0.29247
H         -0.08497        0.90353        0.34453
C          0.35848        2.29091       -1.22348
H          0.17032        3.39897        3.20575
H         -0.70900        2.55148       -1.38527
H          0.98955        3.18611       -1.41750
H          0.64446        1.49594       -1.94517
C          4.33160        4.96801        7.46855
C          4.39033        4.51610        8.76526
C          3.89522        3.21629        8.77628
C          3.54731        2.88939        7.52409
N          3.82895        3.95355        6.64820
C          2.86009        1.60964        7.08999
N          1.66000        1.83010        6.22926
C          0.54582        2.60945        6.90549
H          4.73109        5.09843        9.61133
H          4.60995        5.95332        7.11881
H          3.77769        2.59839        9.65636
H          2.60839        0.99945        7.98478
H          3.57603        1.00108        6.52250
C          0.87561        4.09826        7.18378
C         -0.67782        2.60180        5.99292
C          0.09430        1.95152        8.23735
H          1.26347        4.59582        6.27163
H         -0.03260        4.64660        7.51958
H          1.57017        4.23336        8.02656
H         -0.99544        1.57390        5.73028
H         -1.53843        3.13119        6.46693
H         -0.45424        3.17272        5.09914
H         -0.23003        0.90073        8.07849
H          0.88799        1.97167        9.01163
H         -0.77123        2.50494        8.66904
