110
speciation2038.ct
Na         0.84497        0.12322       -0.24716
Mg        -3.85958       -5.57247       -1.62212
C          3.77298        1.13118       -0.69728
C          2.61356        0.56875       -2.67631
O          2.60771        0.56127       -1.26937
C          3.80294        2.65276       -0.84520
C          1.36884       -0.14581       -3.16983
H          3.77784        0.87564        0.38322
H          4.70315        0.67486       -1.10828
H          2.57289        1.60822       -3.06443
H          3.50022        0.02410       -3.07267
H          0.46282        0.38092       -2.79999
H          1.35684       -0.14782       -4.27922
H          1.35847       -1.19355       -2.80307
H          2.84807        3.08144       -0.49568
H          4.63997        3.07747       -0.25174
H          3.94798        2.94784       -1.90325
H         -6.03937       -6.34612       -3.14219
C         -5.69560       -8.14107       -1.98163
C         -5.17625       -6.90731       -2.71259
C         -6.66271       -7.76806       -0.85647
H         -6.23184       -8.79435       -2.70736
H         -4.82518       -8.69793       -1.57578
H         -6.15910       -7.08322       -0.14232
H         -7.55316       -7.25314       -1.28299
C         -7.12673       -9.01648       -0.10794
H         -4.55846       -7.24467       -3.57154
H         -7.65520       -9.71235       -0.79517
H         -6.25403       -9.54111        0.33663
H         -7.82168       -8.72775        0.70815
C         -2.08157       -6.65483        0.07178
C         -1.01150       -6.74736        0.86775
C         -0.12797       -5.75006        0.47269
C         -0.70658       -4.96513       -0.57864
N         -1.93029       -5.65876       -0.80256
C         -0.14996       -3.41660       -1.22462
N         -0.21681       -1.97216       -0.44773
C          0.43469       -2.38328        0.91307
H         -0.93958       -7.44648        1.69505
H         -3.00135       -7.23850        0.15075
H          0.75344       -5.64504        1.06291
H          0.85969       -3.58382       -1.63715
H         -0.62643       -3.26693       -2.21118
C          1.76097       -3.24651        0.72396
C          0.99056       -1.24302        1.78947
C         -0.59857       -3.02821        1.90459
H          2.51369       -2.67454        0.14795
H          2.19827       -3.57515        1.69559
H          1.73874       -4.17582        0.14497
H          0.19049       -0.57862        2.13425
H          1.42819       -1.67691        2.72759
H          1.86058       -0.73045        1.33861
H         -1.41683       -2.30499        2.11621
H         -1.09326       -3.95983        1.67328
H         -0.11793       -3.29423        2.87522
Na        -2.54690       -1.55447       -0.33332
Mg        -6.00804       -3.40726       -2.98858
C         -0.80532        2.22607        1.25365
C          1.45606        2.38790        2.00834
O          0.43952        1.57231        1.41250
C         -0.71255        3.48937        0.39757
C          1.12018        2.95121        3.40794
H         -1.47545        1.50825        0.73966
H         -1.29646        2.42326        2.23301
H          2.36880        1.77104        2.13993
H          1.72271        3.22969        1.34870
H          0.98556        2.14169        4.15509
H          1.95901        3.59872        3.75030
H          0.21750        3.59655        3.39884
H         -0.18023        3.25409       -0.54744
H         -1.73015        3.86520        0.17339
H         -0.17195        4.29699        0.93471
H         -6.91524       -1.80763       -4.80362
C         -8.63597       -3.01740       -4.37695
C         -7.13903       -2.87636       -4.60122
C         -9.01385       -4.45730       -4.03733
H         -8.93302       -2.34887       -3.53954
H         -9.16536       -2.69156       -5.29949
H         -8.70298       -5.13306       -4.86352
H         -8.49329       -4.76590       -3.10423
C        -10.52169       -4.58152       -3.83736
H         -6.80229       -3.47872       -5.47152
H        -10.85853       -3.91762       -3.01247
H        -11.05670       -4.30047       -4.77011
H        -10.77857       -5.63006       -3.58155
C         -5.39915        0.09302       -0.03976
C         -6.77370        0.02364        0.07044
C         -7.11437       -1.30399       -0.05591
C         -5.93039       -1.99122       -0.22475
N         -4.87700       -1.13678       -0.21890
C         -5.81413       -3.48963       -0.32031
N         -4.90478       -3.92515       -1.41547
C         -3.75545       -3.30065       -1.90314
H         -7.45132        0.84797        0.24822
H         -4.80702        0.99491        0.03583
H         -8.10896       -1.72592        0.01227
H         -5.45899       -3.89447        0.65068
H         -6.81522       -3.95192       -0.46657
C         -3.11111       -3.54670       -0.60817
C         -3.22620       -4.10876       -3.15002
C         -3.87871       -1.84987       -2.55834
H         -2.28630       -3.21144       -1.07770
H         -2.59516       -3.73811        0.30765
H         -3.59384       -3.02791        0.22646
H         -3.98372       -4.06082       -3.95896
H         -2.29797       -3.66156       -3.54810
H         -2.92955       -5.16601       -3.07062
H         -4.78606       -1.76724       -3.18606
H         -3.72050       -0.91569       -2.01488
H         -3.01705       -1.66644       -3.22877
