110
speciation2116.ct
Na         0.97451        0.09064       -0.03370
Mg         4.46312        3.17194        3.77623
C         -1.82690       -0.75620        0.99966
C         -1.93453       -0.20827       -1.28534
O         -1.34549        0.09064       -0.03370
C         -1.51778       -2.24702        0.80836
C         -1.35683        0.70330       -2.35704
H         -1.32210       -0.44304        1.93514
H         -2.91416       -0.59538        1.16856
H         -1.73018       -1.24878       -1.61118
H         -3.03123       -0.02369       -1.23804
H         -0.26924        0.50954       -2.47453
H         -1.86032        0.49866       -3.32666
H         -1.51474        1.76805       -2.08715
H         -0.43961       -2.39730        0.61568
H         -1.79606       -2.80073        1.72958
H         -2.10294       -2.68588       -0.02407
H          5.89463        2.92235        6.06611
C          6.43798        4.89027        5.31424
C          6.13236        3.40302        5.09030
C          7.62245        5.14660        6.26945
H          6.62712        5.38521        4.33906
H          5.52951        5.34366        5.76357
H          7.66984        6.23391        6.50187
H          7.45295        4.60329        7.22402
C          8.98072        4.75825        5.67949
H          6.99715        2.88023        4.63769
H          9.00261        3.69850        5.35965
H          9.21852        5.40895        4.81050
H          9.77255        4.90294        6.44651
C          3.63128        0.67232        4.91886
C          2.97402       -0.51307        4.76466
C          2.78896       -0.68217        3.41380
C          3.44879        0.36863        2.75278
N          3.87465        1.23244        3.71610
C          3.75988        0.71730        1.27643
N          3.34451        0.09064       -0.03370
C          3.54263       -1.42533       -0.16966
H          2.62823       -1.17513        5.55131
H          3.87605        1.12478        5.87289
H          2.22228       -1.52118        3.08302
H          4.83117        0.64537        1.30645
H          3.66721        1.78830        1.19938
C          2.76590       -2.30553        0.80711
C          3.07965       -1.85332       -1.56488
C          4.99729       -1.85903        0.01934
H          1.72324       -1.98105        0.93417
H          2.76852       -3.37226        0.49296
H          3.34288       -2.42160        1.75021
H          3.64126       -1.29054       -2.30776
H          3.27049       -2.93575       -1.71106
H          2.00253       -1.65403       -1.68046
H          5.64150       -1.33927       -0.66956
H          5.33075       -1.68508        1.06447
H          5.14804       -2.94985       -0.14804
Na         5.21813        0.71087       -0.95808
Mg         6.18578        2.23464       -3.91147
C          3.78480        4.86601        1.32018
C          6.01083        3.98909        1.44213
O          4.76739        4.17866        2.10201
C          3.25506        4.12611        0.08458
C          6.64466        5.28400        0.89201
H          2.93800        5.12228        1.96060
H          4.14638        5.87039        1.02704
H          6.72345        3.60938        2.20250
H          5.92731        3.21655        0.65193
H          6.73552        6.05184        1.69153
H          7.65562        5.06710        0.49055
H          6.05915        5.70513        0.04763
H          2.63016        3.26260        0.35526
H          2.56051        4.78507       -0.47165
H          4.07883        3.83553       -0.60082
H          2.71246        3.40360        5.70218
C          1.38232        3.99206        4.09436
C          2.76809        4.00260        4.76783
C          0.97695        2.60861        3.58210
H          0.62282        4.36691        4.81248
H          1.37835        4.68336        3.23911
H          1.73465        2.26650        2.85890
H          0.90086        1.88621        4.42496
C         -0.34499        2.65409        2.82208
H          3.02542        5.04848        5.02917
H         -1.17297        2.97735        3.48648
H         -0.26459        3.35249        1.96120
H         -0.57368        1.64799        2.42345
C          7.26796       -0.10152        1.42153
C          8.60350       -0.35931        1.38185
C          9.05805        0.06051        0.13334
C          7.96454        0.57333       -0.52795
N          6.89459        0.38364        0.21908
C          7.83286        1.28611       -1.84923
N          6.69449        0.81088       -2.67572
C          7.04443       -0.33166       -3.59215
H          9.15827       -0.82987        2.18054
H          6.59361       -0.35179        2.23213
H         10.06897       -0.00340       -0.22105
H          8.81156        1.35810       -2.34036
H          7.57440        2.32922       -1.56517
C          7.43455       -1.61528       -2.82896
C          5.81715       -0.66771       -4.46015
C          8.16954        0.04454       -4.59615
H          6.57301       -2.04928       -2.30442
H          7.72893       -2.41551       -3.54042
H          8.27773       -1.45944       -2.13415
H          5.50321        0.21102       -5.05393
H          6.03261       -1.50513       -5.16441
H          4.95637       -0.95407       -3.85338
H          7.80110        0.74853       -5.37009
H          9.07633        0.48957       -4.15426
H          8.53073       -0.87015       -5.11537
