68
speciation63.ct
Na         4.78649       -1.24245        1.33232
Mg         4.92986        3.28330       -1.86694
C          7.18369       -3.16044        1.84308
C          5.80989       -3.11423        3.76051
O          6.30815       -2.39455        2.65127
C          6.52520       -4.36948        1.16774
C          4.85744       -2.22593        4.54681
H          7.54140       -2.48494        1.03699
H          8.08950       -3.46126        2.41363
H          5.24166       -4.01895        3.46278
H          6.65183       -3.38523        4.43635
H          3.97012       -1.97916        3.92562
H          4.51726       -2.75919        5.46015
H          5.36598       -1.28572        4.84710
H          5.61497       -4.05511        0.61550
H          7.24173       -4.82450        0.45202
H          6.26291       -5.15428        1.90602
C          3.23205        2.33929       -3.79131
C          2.47001        1.35130       -4.39406
C          2.56756        0.24941       -3.56578
C          3.36447        0.60724       -2.49114
N          3.78195        1.89568       -2.64090
C          3.75394       -0.34549       -1.38566
N          3.23204       -0.06552       -0.01505
C          1.78447       -0.06032        0.24249
H          1.93477        1.43477       -5.32488
H          3.38751        3.33496       -4.18082
H          2.10616       -0.71872       -3.75247
H          4.85789       -0.35123       -1.33785
H          3.51835       -1.37912       -1.69713
C          1.15349       -1.41621       -0.15906
C          1.61724        0.17724        1.75993
C          1.11095        1.14554       -0.45387
H          1.07139       -2.10756        0.70465
H          1.76251       -1.98893       -0.86995
H          0.19119       -1.27787       -0.69293
H          2.06625        1.15313        2.05474
H          0.54455        0.18674        2.04725
H          2.13783       -0.61345        2.34193
H          1.63257        2.09041       -0.18200
H          1.08706        1.06384       -1.54959
H          0.05408        1.24279       -0.12795
Na         6.10257        3.14427        1.00212
C          3.63489        6.08504       -1.96695
C          4.13991        7.34977       -1.71977
C          5.45236        7.18204       -1.32260
C          5.67910        5.82217       -1.33699
N          4.59113        5.16558       -1.73943
C          6.94079        5.09820       -0.99415
N          6.68638        3.63835       -0.99336
C          7.85925        2.78234       -1.31277
H          3.61360        8.29025       -1.82991
H          2.63519        5.85946       -2.31564
H          6.15679        7.96002       -1.05864
H          7.28688        5.39920        0.01616
H          7.69352        5.41158       -1.74071
C          9.03327        3.09708       -0.35504
C          7.45176        1.31586       -1.11434
C          8.32314        2.95355       -2.77801
H          8.71892        2.96300        0.70119
H          9.88517        2.41308       -0.55589
H          9.39799        4.13826       -0.48521
H          6.62009        1.05882       -1.80205
H          8.30433        0.63454       -1.33187
H          7.12142        1.13312       -0.07062
H          7.50133        2.70525       -3.47376
H          8.67228        3.97990       -2.99731
H          9.18630        2.27881       -2.98812
