68
speciation105.ct
Na         1.52362        4.04884        2.99886
Mg         2.24559        4.52642       -1.10304
C          4.25257        5.67421       -2.72880
C          2.12567        6.68394       -3.02484
O          2.85062        5.56221       -2.55656
C          4.88494        6.71195       -1.81759
C          0.62998        6.41168       -2.92825
H          4.69965        4.69212       -2.47541
H          4.51421        5.87387       -3.79045
H          2.34314        7.59742       -2.43397
H          2.35164        6.85801       -4.10016
H          0.32392        6.28659       -1.87450
H          0.06405        7.27001       -3.34646
H          0.36244        5.49499       -3.49203
H          4.62319        6.47200       -0.76846
H          5.98952        6.70301       -1.91132
H          4.54009        7.72403       -2.10972
C          4.55973        4.15830        2.55222
C          5.61865        3.71899        1.78866
C          5.08798        2.90626        0.81090
C          3.72073        2.88671        1.01717
N          3.40483        3.64749        2.08710
C          2.72107        2.11635        0.19839
N          2.72729        2.59780       -1.19433
C          1.83020        1.88219       -2.14435
H          6.66326        3.95990        1.93525
H          4.62864        4.81314        3.41126
H          5.64616        2.38461        0.04812
H          2.99660        1.04549        0.25458
H          1.72103        2.25671        0.64812
C          0.34580        2.04426       -1.76898
C          2.03827        2.49659       -3.53993
C          2.17400        0.37815       -2.23731
H          0.06989        3.11904       -1.74629
H         -0.30279        1.54273       -2.52014
H          0.12358        1.57624       -0.78896
H          3.09423        2.39060       -3.86709
H          1.38893        2.00130       -4.29489
H          1.78043        3.57130       -3.53568
H          3.24330        0.23464       -2.50020
H          1.95965       -0.15420       -1.28896
H          1.55728       -0.10993       -3.02457
Na         4.68038        2.25884       -2.00253
C         -0.01968        4.49485        0.79435
C         -0.73320        5.23667        1.70621
C         -0.13371        6.47152        1.76130
C          0.92926        6.43083        0.87748
N          1.00340        5.21745        0.28345
C          1.85372        7.57366        0.59690
N          2.51819        7.98565        1.84928
C          3.48711        9.10881        1.74590
H         -1.59933        4.90650        2.26221
H         -0.24767        3.47872        0.52544
H         -0.44083        7.30857        2.37125
H          2.59129        7.24034       -0.14072
H          1.24387        8.40041        0.18709
C          2.80014       10.41306        1.28605
C          4.09059        9.32447        3.14077
C          4.63324        8.78033        0.78589
H          1.97680       10.68849        1.97707
H          3.53682       11.24536        1.25802
H          2.38742       10.31407        0.26050
H          4.56848        8.38721        3.50168
H          4.86533       10.12163        3.11412
H          3.30534        9.62165        3.86725
H          5.11459        7.81736        1.06494
H          4.24133        8.74380       -0.24075
H          5.40602        9.57645        0.79381
