83
speciation461.ct
Na         6.92733        0.37726        1.17445
Mg         1.62679       -0.61658       -1.68535
C          7.28887        3.18713        2.66573
C          9.37119        2.16233        2.38234
O          7.98550        2.10412        2.07336
C          7.53702        4.50178        1.92487
C         10.07913        0.94230        1.83000
H          6.20758        2.94504        2.59072
H          7.48801        3.30260        3.76887
H          9.85737        3.04849        1.89575
H          9.56206        2.20224        3.48563
H         10.08235        0.99317        0.72265
H         11.13218        0.91004        2.18553
H          9.55666        0.02248        2.16240
H          7.41994        4.33090        0.83725
H          6.80835        5.26556        2.26126
H          8.55482        4.88482        2.13430
C          2.08343       -3.68065       -0.83453
C          2.90452       -4.46377       -0.03841
C          3.76424       -3.60493        0.59101
C          3.48407       -2.34672        0.08795
N          2.42301       -2.36214       -0.75147
C          4.32968       -1.14334        0.34033
N          5.78599       -1.41464        0.19231
C          6.28613       -1.95829       -1.12190
H          2.91261       -5.54729        0.04904
H          1.31311       -4.09980       -1.45920
H          4.57664       -3.88038        1.25136
H          4.12984       -0.81653        1.38555
H          3.98735       -0.32789       -0.33087
C          6.01657       -0.97538       -2.26157
C          7.78748       -2.20930       -0.97000
C          5.69341       -3.33780       -1.55962
H          6.48113        0.00311       -2.04308
H          6.43340       -1.38618       -3.20514
H          4.92364       -0.84828       -2.40574
H          7.97464       -2.95908       -0.16297
H          8.20422       -2.62319       -1.91298
H          8.32480       -1.27391       -0.71928
H          5.85460       -4.12746       -0.79243
H          4.63657       -3.27552       -1.85650
H          6.17990       -3.70548       -2.48442
Na        -0.30991       -3.15423       -2.51203
C          2.51745        2.60036       -0.97936
C          1.76592        1.47691        0.88693
O          1.91354        1.35329       -0.54132
C          3.97210        2.82260       -0.47582
C          0.96782        0.35116        1.49294
H          2.49581        2.65218       -2.07956
H          1.92866        3.50872       -0.66303
H          2.75732        1.47598        1.39575
H          1.23041        2.42072        1.17785
H          1.49703       -0.59902        1.31091
H          0.89411        0.51550        2.59487
H         -0.05092        0.33821        1.06245
H          4.54968        1.88505       -0.54631
H          4.48874        3.60697       -1.07223
H          4.00877        3.18069        0.58243
C         -3.06442        0.15016       -1.83928
C         -2.04123        1.04951       -1.62925
C         -0.99090        0.69998       -2.45266
C         -1.35229       -0.38357       -3.12329
N         -2.66526       -0.79137       -2.79819
C         -0.52224       -1.04403       -4.15090
N          0.73509       -1.62921       -3.60165
C          1.45078       -2.40267       -4.72091
H         -2.06509        1.88055       -0.94469
H         -4.02855        0.15994       -1.34903
H         -0.04476        1.20703       -2.55409
H         -0.33043       -0.29306       -4.93787
H         -1.17711       -1.83609       -4.56939
C          1.90001       -1.48869       -5.89059
C          2.73686       -3.08171       -4.20430
C          0.56822       -3.53243       -5.37769
H          2.67812       -0.77395       -5.56326
H          2.32875       -2.10797       -6.71383
H          1.06421       -0.94534       -6.36725
H          2.54485       -3.86543       -3.45061
H          3.26899       -3.58642       -5.04729
H          3.42997       -2.32168       -3.79411
H          0.21319       -4.29277       -4.65078
H         -0.30270       -3.14183       -5.94444
H          1.14586       -4.08508       -6.15586
