83
speciation314.ct
Na         1.16009        0.17467        0.25018
Mg        -4.91329       -1.29029       -2.43337
C          0.81234       -2.33292        2.05517
C          2.31981       -0.60523        2.68654
O          1.76796       -1.35617        1.62345
C         -0.29157       -1.81371        2.99529
C          3.24500       -1.40982        3.60371
H          0.33857       -2.75062        1.14794
H          1.31518       -3.21125        2.52136
H          2.93658        0.19648        2.23304
H          1.53159       -0.08106        3.25779
H          4.15212       -1.73866        3.05431
H          3.55593       -0.75248        4.44283
H          2.73949       -2.29403        4.04213
H         -0.75429       -0.90176        2.56661
H         -1.07568       -2.58743        3.13782
H          0.11499       -1.59031        4.00532
C         -6.93229       -1.06416       -5.01659
C         -6.45172       -0.27960       -6.10099
C         -5.15417        0.29234       -5.90591
C         -4.87487        0.22270       -4.54456
N         -5.96351       -1.15767       -4.11847
C         -2.31211        1.16211       -1.69110
N         -0.26021        2.00974        0.64863
C          0.15098        3.20409       -0.12150
H         -7.05587       -0.02469       -6.96313
H         -8.00158       -1.19070       -4.79353
H         -4.53306        0.76416       -6.64934
H         -1.57962        0.62187       -2.27443
H         -2.76958        0.40633       -1.10306
C         -1.09802        4.08558       -0.38660
C          1.20567        4.04480        0.58888
C          0.70221        2.74637       -1.48912
H         -1.49746        4.52655        0.54915
H         -0.85966        4.91400       -1.09067
H         -1.92049        3.51368       -0.85662
H          2.13321        3.46136        0.74606
H          1.44688        4.93200       -0.04384
H          0.81324        4.41155        1.55867
H          1.60880        2.12383       -1.36276
H         -0.03287        2.15375       -2.05257
H          0.95197        3.61437       -2.13598
Na        -2.59031        1.59581        0.52130
C          1.04986       -0.91462       -2.71586
C          3.18414       -1.09839       -1.83292
O          1.93090       -0.45010       -1.70576
C          0.64591       -2.37589       -2.53702
C          4.22842       -0.41480       -0.97993
H          0.16571       -0.28697       -2.68878
H          1.45425       -0.74415       -3.74104
H          3.12218       -2.16503       -1.52639
H          3.55002       -1.02691       -2.88550
H          3.99451       -0.55627        0.09340
H          5.21866       -0.87096       -1.19572
H          4.26349        0.66673       -1.22286
H          0.28433       -2.53442       -1.49804
H         -0.13826       -2.63001       -3.27765
H          1.48846       -3.06087       -2.74609
C         -5.89494        2.11265        0.34647
C         -7.13381        1.50734        0.26237
C         -6.90194        0.15285        0.25442
C         -5.53239        0.00218        0.33105
N         -4.92041        1.18187        0.39397
C         -4.80487       -1.26857        0.38546
N         -3.86307       -1.42292       -0.74827
C         -3.29933       -2.80114       -0.74680
H         -8.09804        1.99503        0.21524
H         -5.71717        3.17879        0.37271
H         -7.64298       -0.63492        0.20506
H         -4.26440       -1.26641        1.35313
H         -5.58360       -2.04962        0.38728
C         -4.35227       -3.95297       -0.76890
C         -2.50492       -2.93935       -2.03684
C         -2.40627       -2.98103        0.49633
H         -5.02833       -3.85685       -1.64600
H         -3.83628       -4.93574       -0.83642
H         -4.97141       -4.02186        0.14772
H         -1.92329       -2.01610       -2.19827
H         -1.85743       -3.84314       -2.00626
H         -3.18975       -3.04180       -2.90828
H         -1.71564       -2.12141        0.57808
H         -3.01888       -3.02228        1.42445
H         -1.84458       -3.93694        0.46958
