96
speciation1500.ct
Na         1.40350        1.27281        1.03594
Li         2.63665       -2.87604        1.48337
C          1.19482       -1.26036        3.65122
C          1.53551       -3.52676        4.13151
O          1.51158       -2.55045        3.12274
C         -0.22174       -1.15303        4.27329
C          1.83205       -4.84440        3.48515
H          1.96161       -0.90100        4.37836
H          1.19590       -0.52822        2.81414
H          2.29299       -3.29723        4.89140
H          0.52025       -3.65496        4.55437
H          2.85115       -4.75916        3.03790
H          1.77694       -5.66788        4.18796
H          1.05843       -4.98740        2.67229
H         -0.31407       -1.75350        5.20195
H         -0.44657       -0.10088        4.56995
H         -1.00213       -1.47633        3.54944
H          2.55786       -5.69361        1.12197
C          3.17012       -5.41600       -0.85069
C          2.37471       -4.90347        0.37592
C          2.71030       -6.79080       -1.34350
H          3.05295       -4.81131       -1.73718
H          4.24848       -5.44506       -0.58831
H          2.83548       -7.54361       -0.54003
H          1.63641       -6.74374       -1.63564
C          3.52564       -7.20751       -2.57364
H          1.29206       -4.89641        0.12517
H          3.37791       -6.48173       -3.40524
H          4.60740       -7.24222       -2.32380
H          3.20415       -8.20861       -2.92584
C          4.13624        2.20825        3.02882
C          5.10759        3.14530        2.69824
C          4.69549        3.73514        1.53259
C          3.51316        3.09827        1.19597
N          3.17928        2.14441        2.04556
C          2.60417        3.39253        0.04672
N          2.41685        2.20932       -0.83182
C          3.40291        2.24593       -2.05705
H          6.03097        3.35801        3.23095
H          4.19524        1.55015        3.88354
H          5.20818        4.52033        0.98447
H          2.95405        4.30063       -0.45863
H          1.62128        3.64215        0.50260
C          4.87939        2.30871       -1.58238
C          3.44246        1.08008       -3.17637
C          2.98603        3.42650       -2.95274
H          5.15502        1.37674       -1.03196
H          5.57246        2.38141       -2.44622
H          5.10427        3.16962       -0.94332
H          2.49291        0.90250       -3.69184
H          4.15288        1.35374       -3.98266
H          3.92169        0.09684       -2.96039
H          1.95955        3.20407       -3.32746
H          2.96200        4.40968       -2.47758
H          3.66603        3.51596       -3.82455
Li         1.60300        0.50807        0.22757
C          5.64681       -3.86846        2.13729
C          5.48756       -1.60512        2.39012
O          4.81677       -2.73388        1.83666
C          7.06078       -3.81111        1.46528
C          4.82045       -0.41277        1.93096
H          5.77809       -4.00296        3.23836
H          5.15459       -4.77577        1.74534
H          5.59538       -1.61545        3.49733
H          6.48077       -1.43981        1.91631
H          3.79150       -0.38642        2.36929
H          5.44259        0.47208        2.09440
H          4.92089       -0.53366        0.86231
H          7.73308       -3.02482        1.88004
H          7.63150       -4.74216        1.64522
H          6.96795       -3.63853        0.37218
C         -1.80811        0.87859        0.92722
C         -2.85139        0.00994        0.65783
C         -2.29482       -1.22876        0.47842
C         -0.93925       -1.06517        0.63007
N         -0.62434        0.23154        0.89723
C          0.03759       -2.15536        0.39719
N          1.40092       -1.62089        0.29998
C          1.76402       -1.28156       -1.06920
H         -3.89894        0.25510        0.55790
H         -1.90865        1.93878        1.08807
H         -2.80603       -2.14450        0.20146
H         -0.03306       -2.91640        1.20035
H         -0.24812       -2.69185       -0.53052
C          0.71189       -0.28165       -1.72569
C          3.13019       -0.74460       -0.77204
C          1.95357       -2.40557       -2.07485
H          0.52991        0.69128       -1.23841
H          0.94856       -0.02954       -2.75954
H         -0.29107       -0.74216       -1.82410
H          4.00693       -1.41157       -0.87738
H          3.25263        0.14977       -1.14364
H          3.15066       -0.26597        0.19339
H          2.87674       -2.91056       -1.82764
H          1.09962       -3.10154       -2.16910
H          2.16486       -1.97780       -3.08020
