96
speciation1581.ct
Na         1.05550        1.49465        0.10385
Mg         3.74877       -0.51076       -1.81377
C          3.74655       -0.98800       -5.01576
C          4.46533        1.23703       -4.47702
O          4.15430       -0.09331       -3.96957
C          4.95915       -1.50400       -5.78737
C          3.67345        1.83185       -5.69459
H          3.19451       -1.84500       -4.58430
H          3.00005       -0.54636       -5.71338
H          4.30383        1.95748       -3.65810
H          5.54277        1.27413       -4.73373
H          2.58253        1.91789       -5.53000
H          4.03406        2.86444       -5.89673
H          3.83618        1.27155       -6.64072
H          5.62264       -2.05341       -5.09117
H          4.64091       -2.18310       -6.60785
H          5.52513       -0.66146       -6.24056
H          6.58126       -0.08386       -2.13852
C          6.46169       -1.26169       -0.30215
C          5.90662       -0.18226       -1.26436
C          7.77798       -0.85480        0.37902
H          5.75419       -1.48500        0.51564
H          6.59168       -2.20309       -0.87150
H          8.56282       -0.68010       -0.38497
H          7.63463        0.08221        0.96563
C          8.23515       -1.95143        1.34677
H          5.89163        0.81344       -0.76297
H          7.48963       -2.08574        2.16229
H          8.35131       -2.91535        0.80819
H          9.20792       -1.67997        1.80802
C         -2.11298        0.51519        0.11301
C         -2.74979       -0.70129       -0.13708
C         -1.74564       -1.61122       -0.38778
C         -0.54141       -0.92784       -0.26435
N         -0.76020        0.36325        0.02757
C          0.83715       -1.48419       -0.52549
N          1.98144       -0.57907       -0.16963
C          2.51274       -0.68917        1.23130
H         -3.81651       -0.86725       -0.17257
H         -2.62400        1.43645        0.31161
H         -1.90546       -2.65635       -0.65307
H          0.79237       -1.62014       -1.62174
H          0.97378       -2.53065       -0.17994
C          2.93566       -2.13154        1.59209
C          3.72316        0.22457        1.30465
C          1.56523       -0.15804        2.33963
H          3.57128       -2.58106        0.80215
H          3.50610       -2.13473        2.54704
H          2.04748       -2.77177        1.76465
H          3.45633        1.29441        1.18375
H          4.32027        0.10127        2.23033
H          4.31054       -0.03644        0.45933
H          1.28552        0.90357        2.17377
H          0.64733       -0.76509        2.45265
H          2.10191       -0.16638        3.31769
Mg        -0.01605        3.63062       -4.08989
C         -2.04027        4.38129       -6.04127
C         -1.00643        6.23872       -4.81637
O         -1.21911        4.85552       -4.99315
C         -1.27571        4.08494       -7.33894
C          0.05248        6.82518       -5.75039
H         -2.43277        3.40562       -5.68326
H         -2.93223        5.01827       -6.21401
H         -1.95501        6.81260       -4.82420
H         -0.60099        6.34539       -3.78544
H         -0.31579        6.87496       -6.79205
H          0.28895        7.86110       -5.42032
H          0.99227        6.23259       -5.70865
H         -0.34725        3.50690       -7.13946
H         -1.91876        3.46478       -8.00311
H         -1.02469        5.01102       -7.89131
C          1.19880        1.10476       -3.52118
C          2.00823        0.45426       -2.70374
C          2.58887        1.40425       -1.83585
C          1.99524        2.58250       -2.10208
N          1.21802        2.37416       -3.16336
C          2.08628        3.85546       -1.32679
N          1.99693        3.56983        0.11204
C          2.09113        4.77147        1.00961
H          2.18445       -0.59993       -2.78816
H          0.61175        0.68906       -4.32400
H          3.30151        1.27403       -1.05234
H          1.24697        4.51534       -1.63934
H          3.05694        4.32202       -1.57894
C          0.73187        5.51541        1.11044
C          2.49728        4.34744        2.42954
C          3.17707        5.78097        0.52783
H         -0.01552        4.88709        1.63597
H          0.85037        6.45763        1.69997
H          0.34052        5.78950        0.11367
H          3.51157        3.89138        2.43430
H          2.53275        5.23115        3.11432
H          1.77662        3.61913        2.85322
H          4.16555        5.27248        0.45538
H          2.93439        6.23470       -0.45524
H          3.29172        6.62935        1.24090
