96
speciation1586.ct
Na         3.30370        0.19695        1.25421
Mg         3.11219        0.21309       -1.73158
C          2.68781        0.05438       -4.65552
C          1.16248        1.41867       -3.50401
O          2.01771        0.28242       -3.42573
C          3.53508        1.21656       -5.20581
C          0.02587        1.28800       -4.53070
H          3.30130       -0.81172       -4.47379
H          1.99051       -0.31209       -5.43783
H          0.65490        1.52630       -2.54008
H          1.73504        2.35029       -3.67861
H         -0.60853        0.40981       -4.29096
H         -0.60141        2.20428       -4.49677
H          0.40200        1.20063       -5.57048
H          4.22762        1.60110       -4.44849
H          4.12869        0.86978       -6.07823
H          2.90284        2.05876       -5.55289
H          4.88453        2.07142       -0.69182
C          3.85782        3.62711       -1.78670
C          4.27202        2.15769       -1.61353
C          3.12585        4.21431       -0.58828
H          4.78644        4.23169       -1.91956
H          3.26236        3.73540       -2.71709
H          2.20228        3.66445       -0.39833
H          3.78063        4.14743        0.30681
C          2.75419        5.67285       -0.83867
H          4.95541        2.05570       -2.45102
H          3.66078        6.27854       -1.05123
H          2.05705        5.74729       -1.70150
H          2.25119        6.08386        0.06101
C          2.36198        2.34217        3.38847
C          1.26559        3.18967        3.39891
C          0.58280        2.90704        2.21205
C          1.27995        1.92561        1.55438
N          2.35821        1.57789        2.28181
C          0.89843        1.27038        0.24758
N          1.74745        0.09976       -0.08901
C          1.04406       -1.18308        0.16775
H          1.00728        3.90910        4.14228
H          3.14384        2.30674        4.14514
H         -0.34260        3.37502        1.89001
H          0.93959        2.02710       -0.52856
H         -0.17530        0.99030        0.31760
C         -0.05845       -1.44323       -0.88986
C          2.05989       -2.22595       -0.00471
C          0.52444       -1.34252        1.61504
H          0.35822       -1.30236       -1.91281
H         -0.41894       -2.49390       -0.82009
H         -0.92338       -0.76869       -0.77386
H          2.93392       -2.04292        0.66728
H          1.69081       -3.26293        0.14872
H          2.29754       -2.08735       -1.06148
H          1.34692       -1.17127        2.34511
H         -0.31144       -0.65815        1.84217
H          0.15462       -2.38262        1.77001
Mg         5.50052       -1.45205        0.19180
C          7.17071       -2.60122        2.01495
C          5.31423       -1.44002        2.94379
O          6.32824       -1.45498        1.94636
C          6.44322       -3.95561        2.01732
C          5.86110       -1.24360        4.36142
H          7.81893       -2.58259        1.11766
H          7.86637       -2.52619        2.87673
H          4.67125       -0.56304        2.75607
H          4.64670       -2.32271        2.88151
H          6.40756       -0.27918        4.43097
H          5.01304       -1.22145        5.07910
H          6.53372       -2.07148        4.66214
H          5.75489       -4.02656        1.14958
H          7.18896       -4.77516        1.95447
H          5.87821       -4.11393        2.95964
C          2.25254       -4.21221       -4.50761
C          3.13139       -5.25316       -4.31215
C          3.95632       -4.88387       -3.26398
C          3.61048       -3.65543       -2.82972
N          2.51497       -3.17425       -3.58264
C          4.32294       -2.95991       -1.63549
N          4.65146       -1.44904       -1.60797
C          5.95256       -1.39982       -2.50709
H          3.15615       -6.18418       -4.87256
H          1.47198       -4.21014       -5.26331
H          4.74995       -5.50594       -2.86619
H          5.20355       -3.57594       -1.47905
H          3.95766       -3.37446       -0.69554
C          5.84216       -2.03278       -3.94795
C          6.48220        0.01401       -2.76107
C          7.19565       -2.13130       -1.86445
H          5.11472       -1.56697       -4.60625
H          6.79014       -1.90280       -4.51468
H          5.71472       -3.12450       -3.95987
H          6.70917        0.55586       -1.82154
H          7.44105       -0.02583       -3.33622
H          5.81563        0.53781       -3.44761
H          7.52647       -1.63337       -0.93787
H          7.12980       -3.21748       -1.67491
H          8.05823       -2.10518       -2.57204
