95
speciation1186.ct
Na         1.16587       -0.29715        0.48146
Mg        -2.06200       -1.86274       -0.92811
C          0.83321        0.67670        3.44980
C         -1.06815       -0.29316        2.55363
O          0.09323        0.46922        2.25273
C          2.13984        1.35733        3.15935
C         -2.14193        0.50474        3.30689
H          0.29313        1.38214        4.11735
H          1.05241       -0.27569        3.98432
H         -1.51962       -0.61509        1.59093
H         -0.82953       -1.20302        3.14396
H         -2.44120        1.40181        2.72869
H         -3.03166       -0.14003        3.46878
H         -1.79311        0.81565        4.31340
H          1.93670        2.31585        2.65449
H          2.67972        1.57618        4.10543
H          2.74010        0.67496        2.53876
H         -1.84050       -0.21644       -2.94277
C         -3.71075        0.68790       -2.42002
C         -2.78509       -0.52557       -2.44796
C         -3.14539        1.86566       -1.62654
H         -3.85360        1.01586       -3.47542
H         -4.69663        0.38759       -2.00851
H         -3.03250        1.57601       -0.55949
H         -2.15069        2.15910       -2.02808
C         -4.08330        3.07088       -1.73352
H         -3.27945       -1.27008       -3.10491
H         -4.17220        3.39776       -2.79330
H         -5.09565        2.81097       -1.35525
H         -3.68659        3.91896       -1.13799
C         -0.23326       -2.92240       -5.28802
C         -1.33743       -3.42407       -4.64321
C         -1.22768       -3.04546       -3.32737
C         -0.04173       -2.33730       -3.20700
N          0.54784       -2.25322       -4.42046
C          0.57383       -1.68483       -1.98270
N         -0.04431       -1.95856       -0.65754
C          0.23260       -3.31400       -0.04628
H         -2.13909       -4.00826       -5.07969
H         -0.01283       -3.03419       -6.34003
H         -1.94155       -3.27119       -2.56455
H          0.50629       -0.59308       -2.15655
H          1.65724       -1.88972       -1.95360
C          1.70560       -3.72220       -0.12643
C         -0.13737       -3.25873        1.43985
C         -0.59123       -4.45561       -0.67957
H          2.29706       -2.94736        0.38627
H          1.87654       -4.69471        0.38600
H          2.04662       -3.86068       -1.17287
H         -1.19837       -2.98022        1.57332
H          0.01597       -4.24706        1.92890
H          0.51374       -2.52820        1.96015
H         -1.67296       -4.24158       -0.64240
H         -0.26616       -4.67278       -1.71312
H         -0.43918       -5.40686       -0.12464
Na         4.45268        1.22815        1.46546
Mg         2.21097       -1.34431       -4.85995
H         -3.28686       -3.60218        0.78167
C         -5.00697       -3.05117       -0.37154
C         -3.67826       -2.68118        0.29830
C         -4.82371       -4.07399       -1.50013
H         -5.68833       -3.48205        0.39874
H         -5.47086       -2.12987       -0.77887
H         -4.15863       -3.64457       -2.27381
H         -4.36565       -5.00840       -1.10582
C         -6.15946       -4.42047       -2.15847
H         -3.88096       -1.95598        1.11362
H         -6.84545       -4.89930       -1.42728
H         -6.63997       -3.50342       -2.56132
H         -5.99124       -5.12681       -2.99956
C          4.85735       -3.00294        1.30425
C          4.88320       -3.59188        0.05777
C          4.61469       -2.60202       -0.86799
C          4.42599       -1.45509       -0.21225
N          4.58722       -1.62733        1.17912
C          4.19123       -0.14554       -0.89913
N          3.21104        0.74084       -0.23075
C          3.10496        2.07266       -0.91994
H          5.07034       -4.63637       -0.15112
H          5.01776       -3.51781        2.24112
H          4.58437       -2.72708       -1.94367
H          3.91858       -0.35174       -1.95078
H          5.18863        0.32984       -0.87257
C          2.56036        1.94023       -2.35783
C          2.14505        2.98011       -0.14097
C          4.47035        2.82691       -0.97131
H          1.55937        1.46860       -2.35466
H          2.47043        2.94502       -2.82730
H          3.23812        1.36482       -3.01820
H          2.56468        3.22046        0.85182
H          2.01800        3.95567       -0.66395
H          1.14603        2.50893       -0.03504
H          4.87672        2.99613        0.04962
H          5.24360        2.31314       -1.57511
H          4.34979        3.82772       -1.44188
