96
speciation1493.ct
Na         1.96337        0.17955        1.19254
Mg         2.96677        1.35113       -1.83257
C          1.78571       -1.76940       -2.91066
C          3.36970       -0.70716       -4.28949
O          2.64072       -0.58970       -3.06807
C          2.52223       -3.17437       -2.94773
C          2.47258       -0.98201       -5.51722
H          1.21831       -1.67490       -1.97050
H          0.94424       -1.80806       -3.63035
H          3.89342        0.24861       -4.45379
H          4.16416       -1.48963       -4.22230
H          1.58357       -0.32010       -5.48210
H          3.02790       -0.82387       -6.46072
H          2.12074       -2.03888       -5.53638
H          3.50744       -3.18730       -2.48351
H          1.95568       -3.94886       -2.38177
H          2.76087       -3.54927       -3.95707
H          1.45032        2.93178       -3.44017
C          3.23206        3.16561       -4.64326
C          2.54063        2.99613       -3.25717
C          2.81853        4.45383       -5.38745
H          4.33577        3.17317       -4.59402
H          2.95841        2.29479       -5.27173
H          3.26077        4.42925       -6.40916
H          1.71418        4.49363       -5.49500
C          3.33143        5.73241       -4.71329
H          2.75135        3.87613       -2.61699
H          2.92224        5.84991       -3.69075
H          4.44175        5.71914       -4.66191
H          3.02407        6.62049       -5.30712
C         -1.99435       -1.02441        0.30300
C         -2.88057        0.02578        0.34724
C         -2.15725        1.16852        0.04971
C         -0.85526        0.76946       -0.18767
N         -0.77068       -0.55952        0.00899
C          0.26291        1.68316       -0.69963
N          1.59146        1.69286       -0.03592
C          1.74291        2.64011        1.12994
H         -3.93487       -0.03923        0.57758
H         -2.22004       -2.06689        0.49853
H         -2.54358        2.17415       -0.00772
H         -0.12916        2.70895       -0.81353
H          0.45774        1.33154       -1.73102
C          0.74758        2.30677        2.28107
C          3.16780        2.50118        1.72357
C          1.56276        4.11494        0.73952
H          0.84295        1.26739        2.66040
H          0.93654        2.96604        3.15893
H         -0.30190        2.46700        1.96929
H          3.92008        2.87227        1.00204
H          3.28986        3.10354        2.65017
H          3.41118        1.46097        2.02237
H          2.26358        4.38651       -0.07508
H          0.52350        4.33650        0.43527
H          1.77669        4.76309        1.62047
Mg         0.80437       -1.46159        0.03931
C          5.70281        2.51045       -2.26492
C          5.63203        1.01676       -0.35789
O          4.90990        1.91471       -1.21884
C          7.02341        3.22090       -1.88817
C          6.24987       -2.11580       -1.52803
H          5.88512        1.79538       -3.08995
H          5.12002        3.33556       -2.68534
H          6.49770        1.58587        0.09646
H          5.04586        1.06023        0.59545
H          6.90032       -2.20356       -2.44174
H          6.63120       -2.91073       -0.84988
H          5.38469       -2.60526       -2.01701
H          7.75618        2.58856       -1.34888
H          7.53154        3.52020       -2.83529
H          6.83449        4.14977       -1.31083
C          6.97544       -0.01903       -1.81558
C          7.32251       -0.56605       -0.22192
C          5.85313       -1.08405        0.51275
C          4.60040       -0.96054       -0.51465
N          5.23655       -0.29352       -2.02344
C          3.15769       -1.30629       -0.34431
N          2.45907       -1.56539        0.88563
C          2.46291       -2.80876        1.63019
H          8.27180       -0.57932        0.28043
H          7.68057        0.38456       -2.52758
H          5.82725       -1.46252        1.52504
H          3.01441       -2.16092       -0.89257
H          2.63820       -0.43528       -0.77049
C          3.81150       -2.92616        2.28408
C          1.36657       -2.71384        2.71104
C          2.18314       -4.00516        0.69664
H          4.02075       -1.97133        2.82535
H          3.87173       -3.78075        2.97320
H          4.53355       -3.10057        1.46814
H          0.34700       -2.67776        2.26653
H          1.42083       -3.59256        3.38809
H          1.50059       -1.79593        3.32555
H          1.25844       -3.82588        0.10083
H          3.02309       -4.14817       -0.01626
H          2.06947       -4.94428        1.26937
