96
speciation1468.ct
Na        -2.10808        3.01969        1.23571
Mg        -1.50595       -2.59642       -2.51788
C         -1.11413       -2.13729        0.09539
C         -2.71353       -3.78938        0.32674
O         -2.06132       -2.91411       -0.60843
C          0.03826       -2.87105        0.76878
C         -3.72656       -4.74560       -0.28088
H         -0.62850       -1.51364       -0.67125
H         -1.62399       -1.51163        0.85478
H         -1.99387       -4.43955        0.86364
H         -3.28952       -3.17343        1.06179
H         -3.22942       -5.45295       -0.97038
H         -4.16999       -5.34176        0.55301
H         -4.54541       -4.20389       -0.78843
H          0.50807       -3.56610        0.05497
H          0.77923       -2.10209        1.09677
H         -0.30617       -3.39447        1.68397
H         -2.74453       -3.42990       -4.92582
C         -4.56534       -2.89908       -3.90309
C         -3.13307       -3.45683       -3.88411
C         -4.54782       -1.47016       -4.40347
H         -5.22616       -3.50022       -4.56969
H         -4.97427       -2.93959       -2.87169
H         -3.81337       -0.98586       -3.76616
H         -4.18640       -1.42085       -5.45402
C         -5.91904       -0.78535       -4.29223
H         -3.23733       -4.52316       -3.60367
H         -6.66068       -1.25628       -4.95532
H         -6.28861       -0.80180       -3.24731
H         -5.88384        0.26513       -4.62448
C         -0.59782       -0.10492       -4.10837
C         -0.35313        1.25996       -4.24041
C         -0.62978        1.83293       -3.02976
C         -1.02776        0.79527       -2.19028
N         -1.00860       -0.41913       -2.84378
C         -1.53558        1.11715       -0.79459
N         -2.80141        1.89112       -0.72963
C         -3.99639        1.30629       -1.39120
H         -0.04288        1.80078       -5.13102
H         -0.52850       -0.80734       -4.92082
H         -0.55796        2.88249       -2.77254
H         -0.72587        1.70792       -0.30375
H         -1.63870        0.27481       -0.14176
C         -4.26072       -0.15349       -0.88953
C         -5.26816        2.10669       -1.08274
C         -3.75536        1.47400       -2.91608
H         -4.67513       -0.14666        0.14650
H         -4.97632       -0.70472       -1.52024
H         -3.35504       -0.77411       -0.85928
H         -5.20956        3.15014       -1.45801
H         -6.13649        1.62038       -1.59710
H         -5.50242        2.11645        0.00018
H         -3.41546        2.50857       -3.10362
H         -3.02944        0.77422       -3.22890
H         -4.45844        1.31295       -3.71237
Mg        -2.48915        3.56804       -1.68776
C          1.20555       -2.92120       -3.53471
C          0.42026       -5.03892       -2.94296
O          0.13540       -3.64524       -2.94127
C          1.41800       -3.21798       -5.03053
C         -0.67036       -5.86281       -2.29528
H          0.98548       -1.85599       -3.43643
H          2.15042       -3.04809       -2.96459
H          0.49498       -5.42723       -3.98105
H          1.36179       -5.24353       -2.38149
H         -1.61590       -5.74033       -2.84901
H         -0.38672       -6.93498       -2.36121
H         -0.79293       -5.58635       -1.23175
H          0.46458       -3.12680       -5.59101
H          2.15462       -2.50445       -5.45414
H          1.84128       -4.23293       -5.18637
C         -4.10539        7.53953        1.82304
C         -4.57118        6.39206        1.27641
C         -3.99018        5.33077        1.95024
C         -3.17816        5.81832        2.88355
N         -3.18502        7.23637        2.87350
C         -2.39147        5.00762        3.88067
N         -1.41476        4.14826        3.20104
C         -0.56580        3.28127        4.05592
H         -5.28320        6.34082        0.46436
H         -4.35082        8.55921        1.53550
H         -4.18186        4.28357        1.76346
H         -3.10881        4.40227        4.46776
H         -1.85903        5.70666        4.55205
C         -1.39618        2.38460        5.00140
C          0.24040        2.36424        3.11852
C          0.42232        4.12670        4.88507
H         -2.14057        1.79056        4.43047
H         -0.72823        1.67754        5.54301
H         -1.92287        2.98349        5.77303
H          0.85388        2.96498        2.41357
H          0.92059        1.70270        3.69874
H         -0.44230        1.71840        2.52512
H          1.04835        4.75852        4.21928
H         -0.10808        4.78470        5.60308
H          1.09454        3.46894        5.47867
