66
speciation241.ct
Na         6.73836        0.81042        0.05257
Mg         1.03748        2.00015       -1.80131
H         -1.72249        1.96031       -0.69031
C         -1.27755        3.98554       -0.60441
C         -0.82290        2.53789       -0.45481
C         -2.58218        4.34512        0.15415
H         -0.46022        4.62152       -0.24273
H         -1.45175        4.16374       -1.68516
H         -3.41056        3.70724       -0.23323
H         -2.49415        4.13863        1.24473
C         -2.98342        5.81990       -0.09231
H         -0.69252        2.29534        0.62267
H         -3.29915        6.42903        0.78565
H         -2.36607        6.31914       -0.87782
H         -3.98445        5.79171       -0.52667
C          4.27689       -1.09503       -0.07375
C          2.89932       -1.15790       -0.03330
C          2.44452        0.13647        0.08104
C          3.55549        0.93575        0.09464
N          4.68084        0.18652        0.00432
C          3.56024        2.41556        0.29327
N          2.78878        3.18273       -0.71088
C          3.08335        4.71043       -0.55134
H          2.29195       -2.04916       -0.06558
H          4.94644       -1.94610       -0.14140
H          1.42465        0.47041        0.17490
H          3.16983        2.64972        1.30588
H          4.63477        2.66345        0.28127
C          4.61321        5.08292       -0.56254
C          2.43407        5.51219       -1.66901
C          2.48674        5.32845        0.72783
H          5.12077        4.81952       -1.51592
H          4.75421        6.17946       -0.41308
H          5.18792        4.64827        0.27787
H          1.36346        5.23927       -1.70197
H          2.47766        6.61167       -1.51046
H          3.01323        5.38460       -2.58238
H          1.39058        5.21501        0.76405
H          2.95324        4.96483        1.65984
H          2.67489        6.43238        0.71658
Mg         2.80848        2.40572       -2.44389
C         -1.85716        0.52245       -2.74095
C         -2.23761        0.02782       -3.97547
C         -1.11863        0.04124       -4.76242
C         -0.11011        0.53476       -3.95317
N         -0.55790        0.94031       -2.75458
C          1.31014        0.67892       -4.29267
N          1.71424        2.04309       -3.95605
C          1.39528        3.05386       -5.01696
H         -3.23538       -0.28429       -4.26760
H         -2.56477        0.61727       -1.93706
H         -1.05902       -0.26287       -5.80325
H          1.51406        0.35071       -5.32493
H          1.86623       -0.01732       -3.63133
C         -0.11522        3.19375       -5.35034
C          1.81672        4.38726       -4.50257
C          2.20331        2.78440       -6.31297
H         -0.71718        3.40069       -4.43579
H         -0.25434        4.06913       -6.02553
H         -0.52552        2.32869       -5.89692
H          2.90341        4.32130       -4.29294
H          1.63644        5.21482       -5.21485
H          1.18869        4.56643       -3.62177
H          3.28292        2.99912       -6.16116
H          2.13092        1.75036       -6.68405
H          1.82475        3.42291       -7.13511
