95
speciation1173.ct
Na         3.42575       -0.49063        2.07808
Mg         1.98881        4.54789       -0.60538
C          2.54658       -2.61330        3.97063
C          0.68766       -1.20037        3.78624
O          2.10904       -1.26853        3.82266
C          2.05509       -3.58170        2.87755
C          0.17582        0.23762        3.83888
H          3.65522       -2.59713        3.91486
H          2.29540       -2.99858        4.98212
H          0.30619       -1.65356        2.85070
H          0.23833       -1.74250        4.65617
H         -0.66792        0.34672        3.12170
H         -0.22521        0.47739        4.84820
H          0.96768        0.96285        3.56465
H          2.30910       -3.19134        1.86899
H          2.53898       -4.57182        3.01217
H          0.95992       -3.75288        2.94413
H          3.22684        6.94489       -0.08505
C          4.59476        6.14698       -1.57974
C          3.62316        5.96036       -0.39899
C          3.93240        6.80675       -2.79739
H          5.43257        6.80462       -1.24760
H          5.03291        5.16570       -1.87246
H          3.52925        7.80149       -2.49565
H          4.69962        6.97601       -3.57875
C          2.81998        5.94528       -3.37704
H          4.22215        5.56487        0.45105
H          3.23211        4.95988       -3.70785
H          2.03206        5.77737       -2.61391
H          2.36229        6.46769       -4.26336
C          5.82071       -0.35871       -0.22788
C          6.39522        0.39677       -1.22747
C          5.66453        1.56315       -1.30650
C          4.65993        1.44699       -0.37161
N          4.77083        0.30404        0.29590
C          3.61663        2.43792       -0.05008
N          2.75219        2.76952       -1.19727
C          1.68602        1.86642       -1.69058
H          7.26683        0.13206       -1.81407
H          6.15205       -1.32749        0.10295
H          5.85498        2.39658       -1.96158
H          3.06601        2.14949        0.86112
H          4.15680        3.34918        0.24653
C          0.74267        1.46818       -0.53443
C          0.94968        2.67377       -2.79157
C          2.22517        0.58687       -2.39807
H         -0.06886        2.19774       -0.37321
H          1.24977        1.47476        0.42834
H          0.49082        0.38388       -0.54916
H          1.66089        2.96085       -3.61013
H          0.12993        2.09564       -3.27179
H          0.52773        3.61533       -2.38866
H          2.84329        0.77130       -3.29848
H          2.78604       -0.07871       -1.71503
H          1.36890        0.01033       -2.81571
Na         4.06219        2.37793       -3.13311
Mg         6.82428        6.39938       -3.90122
H          0.30185        6.46249        0.34176
C         -1.25921        4.97256        0.21947
C          0.04932        5.60307       -0.31546
C         -1.12709        4.43944        1.65454
H         -2.05771        5.75148        0.20929
H         -1.57723        4.15163       -0.45669
H         -0.34643        3.65290        1.68102
H         -0.83178        5.26577        2.33844
C         -2.44557        3.84332        2.16615
H         -0.17774        6.01327       -1.32103
H         -3.24191        4.61842        2.21305
H         -2.78706        3.01680        1.50720
H         -2.30025        3.43562        3.19022
C          5.46520        0.76768       -5.63538
C          6.21685        0.85080       -6.81928
C          6.58105        2.17380       -6.94843
C          6.04992        2.82638       -5.87025
N          5.37218        1.98635       -5.06895
C          6.22008        4.28350       -5.57343
N          6.84117        4.48066       -4.25343
C          8.23265        4.01118       -4.02994
H          6.44371        0.02820       -7.46736
H          5.01613       -0.12250       -5.24078
H          7.16463        2.58291       -7.75881
H          6.79983        4.82018       -6.37098
H          5.20300        4.75046       -5.55425
C          9.20718        4.61075       -5.06530
C          8.61987        4.48061       -2.62925
C          8.36299        2.46708       -4.05284
H          9.15756        5.71859       -5.05025
H         10.24875        4.29569       -4.84141
H          8.97152        4.25788       -6.09322
H          7.90278        4.07146       -1.88106
H          9.63985        4.13798       -2.36154
H          8.58853        5.58703       -2.56836
H          7.61027        1.99662       -3.39250
H          8.28300        2.03949       -5.06270
H          9.37363        2.15527       -3.69863
