81
speciation745.ct
Na         1.36544        0.09111       -0.05453
Mg         6.10852       -1.17735        3.64512
C          8.43750        0.28063        4.15166
C          8.64409       -1.73877        2.95575
O          7.93816       -1.02801        3.95767
C          7.64470        0.96534        5.25673
C          8.52444       -1.14083        1.54867
H          9.49658        0.22717        4.48892
H          8.35055        0.91102        3.24234
H          9.70974       -1.87395        3.24632
H          8.20288       -2.75917        2.92530
H          9.06270       -0.17517        1.47105
H          8.98789       -1.83504        0.81720
H          7.45927       -0.99197        1.28200
H          7.67856        0.35980        6.18728
H          8.08108        1.96622        5.46495
H          6.58720        1.09539        4.94209
H          2.73148        2.15531       -3.18842
C          2.51103        3.79270       -1.78430
C          2.71862        2.29765       -2.08862
C          3.65075        4.64748       -2.35310
H          1.54834        4.12997       -2.22987
H          2.42853        3.94149       -0.68811
H          4.62171        4.31343       -1.93749
H          3.68371        4.52919       -3.45697
C          3.47010        6.12746       -2.01620
H          1.83814        1.75098       -1.69098
H          2.52539        6.51692       -2.45140
H          3.45376        6.27774       -0.91505
H          4.31940        6.70769       -2.43633
C          3.44528       -2.27259        4.09019
C          2.13627       -2.23748        3.65595
C          2.10290       -1.37490        2.57932
C          3.41028       -0.94079        2.37919
N          4.21120       -1.47563        3.32786
C          3.91445        0.01223        1.32657
N          3.48410       -0.21763       -0.07484
C          3.70603       -1.53412       -0.72432
H          1.30226       -2.77986        4.08498
H          3.81231       -2.83649        4.93942
H          1.22660       -1.11768        2.00150
H          5.01982        0.09083        1.38724
H          3.48562        0.98272        1.61810
C          3.01803       -2.72697       -0.01599
C          3.07182       -1.43098       -2.12175
C          5.20420       -1.82179       -0.84170
H          1.93132       -2.54029        0.11833
H          3.12506       -3.65212       -0.62186
H          3.48898       -2.97345        0.95384
H          3.52832       -0.60700       -2.70726
H          3.18665       -2.38104       -2.68661
H          1.98138       -1.22472       -2.02737
H          5.71098       -0.96281       -1.31793
H          5.64162       -1.98520        0.16506
H          5.38207       -2.73725       -1.44628
Mg         4.45244        1.23415       -1.27729
C          4.13840        3.41587        1.44671
C          5.18932        3.55641        2.32043
C          6.34083        3.20470        1.64006
C          6.00258        2.84993        0.40066
N          4.61556        2.95807        0.21085
C          6.98284        2.39472       -0.63231
N          6.34018        2.00400       -1.90522
C          7.36190        1.63475       -2.96290
H          5.11257        3.87739        3.34801
H          3.09623        3.60101        1.67034
H          7.34682        3.20688        2.03813
H          7.50480        1.52348       -0.19569
H          7.68533        3.23616       -0.77932
C          8.25607        0.44607       -2.52624
C          6.66960        1.23736       -4.28203
C          8.29562        2.83467       -3.31591
H          7.64471       -0.44465       -2.29471
H          8.96713        0.16711       -3.33584
H          8.88345        0.69676       -1.64727
H          6.06986        2.07670       -4.69130
H          7.43764        0.98069       -5.05367
H          6.02537        0.34633       -4.15050
H          7.70523        3.70648       -3.66990
H          8.93753        3.15621       -2.47340
H          9.00843        2.55878       -4.12686
