96
speciation1150.ct
Na         0.98804       -0.16696        0.25373
Mg         0.10750        1.57905       -2.70216
C          1.92497        2.10131        2.26927
C         -0.45028        2.12263        2.03224
O          0.79220        1.63823        1.52945
C          1.84337        1.89325        3.78814
C         -0.63304        3.65041        1.96688
H          2.80885        1.54950        1.89345
H          2.13665        3.17092        2.05702
H         -1.25676        1.73492        1.40973
H         -0.64162        1.73776        3.05241
H         -0.63480        4.01789        0.92660
H         -1.62207        3.91288        2.39607
H          0.13978        4.19645        2.54305
H          1.58641        0.84786        4.03376
H          2.82126        2.15516        4.24510
H          1.07717        2.55125        4.24295
H         -2.45743        2.19989       -3.57527
C         -1.54678        3.95395       -4.25072
C         -1.65738        2.84683       -3.19008
C         -2.93812        4.57690       -4.51684
H         -0.82834        4.73462       -3.92059
H         -1.17191        3.49633       -5.19190
H         -3.66774        3.77663       -4.77256
H         -3.29385        5.09331       -3.59902
C         -2.93735        5.56146       -5.68430
H         -2.02583        3.28303       -2.24012
H         -2.22779        6.39441       -5.50482
H         -2.66640        5.03888       -6.62731
H         -3.95948        5.98373       -5.80949
C          1.25470        1.05440       -5.42988
C          1.70820       -0.12120       -5.99486
C          1.50394       -1.11818       -5.05765
C          0.94010       -0.50735       -3.95921
N          0.77427        0.80389       -4.20198
C          0.54301       -1.17788       -2.65587
N         -0.20091       -0.26431       -1.73078
C         -1.64705       -0.69508       -1.59228
H          2.15569       -0.23464       -6.97197
H          1.29527        2.03718       -5.87730
H          1.74806       -2.16882       -5.16630
H          1.44617       -1.57812       -2.14948
H         -0.05006       -2.05550       -2.96046
C         -1.82246       -2.12490       -0.99848
C         -2.33580        0.25504       -0.61708
C         -2.40211       -0.68237       -2.94633
H         -1.29510       -2.22608       -0.03793
H         -2.90142       -2.33917       -0.82371
H         -1.47332       -2.93333       -1.67369
H         -2.22306        1.31185       -0.92372
H         -3.42122        0.02632       -0.51721
H         -1.89116        0.08478        0.37954
H         -2.19801        0.21892       -3.50893
H         -2.10192       -1.51312       -3.61075
H         -3.50564       -0.77688       -2.79152
Mg         1.44641       -3.38933       -0.14529
C          2.96138        2.29869       -2.22150
C          1.31594        3.54246       -1.01873
O          1.59662        2.71905       -2.13287
C          3.57438        1.64354       -0.97339
C          1.97386        4.92223       -1.06331
H          3.02625        1.55828       -3.03866
H          3.59847        3.14950       -2.54696
H          0.22047        3.69484       -1.01555
H          1.58692        3.05132       -0.09722
H          1.66451        5.47484       -1.97217
H          1.65588        5.49821       -0.16530
H          3.08124        4.84232       -1.02681
H          2.95989        0.78308       -0.64518
H          4.59648        1.28088       -1.21469
H          3.68925        2.37410       -0.14702
C          3.38693       -5.24327       -1.60153
C          4.76522       -5.11737       -1.64757
C          5.08815       -3.99551       -0.90398
C          3.88674       -3.48499       -0.43551
N          2.86675       -4.24330       -0.86210
C          3.69587       -2.24753        0.44327
N          2.26256       -2.01152        0.87104
C          1.98143       -2.34426        2.29024
H          5.45273       -5.76842       -2.16164
H          2.80066       -6.01450       -2.08653
H          6.08192       -3.60294       -0.72229
H          4.06989       -1.35895       -0.09880
H          4.36991       -2.39749        1.30766
C          2.86299       -1.52352        3.25880
C          0.50720       -1.99426        2.52596
C          2.17616       -3.84690        2.59167
H          2.88069       -0.47231        2.94505
H          2.49032       -1.61238        4.30232
H          3.91601       -1.86609        3.28619
H         -0.13376       -2.61052        1.86211
H          0.20852       -2.19602        3.57622
H          0.31665       -0.92377        2.31055
H          1.54906       -4.47247        1.92217
H          3.23411       -4.15665        2.46913
H          1.88466       -4.06633        3.64262
