110
speciation2498.ct
Na        -2.80529        0.27223        5.30054
Mg        -1.92907       -4.04105        0.95155
C         -3.58493       -3.95128       -1.67564
C         -1.69057       -2.60303       -1.71061
O         -2.59944       -3.29574       -0.85735
C         -3.04586       -4.92571       -2.75108
C         -0.66338       -1.81655       -0.93801
H         -4.28631       -4.49404       -1.02377
H         -4.22809       -3.19179       -2.17849
H         -1.10223       -3.30070       -2.34085
H         -2.23956       -1.86715       -2.34815
H         -0.08242       -2.50343       -0.29183
H          0.02911       -1.31038       -1.64125
H         -1.16190       -1.02653       -0.36554
H         -2.38038       -5.68591       -2.29899
H         -3.89099       -5.43966       -3.25786
H         -2.50082       -4.39230       -3.56209
H         -1.05774       -6.30575       -0.31833
C          0.38942       -6.58941        1.26000
C         -0.42390       -5.65818        0.31620
C         -0.52415       -7.25038        2.30338
H          0.95392       -7.35636        0.69203
H          1.18153       -6.01443        1.76942
H         -1.19819       -6.49636        2.73018
H         -1.16016       -8.01398        1.81510
C          0.25660       -7.84518        3.47744
H          0.30341       -5.12273       -0.33316
H          0.95008       -8.63582        3.13199
H          0.83961       -7.04822        3.99335
H         -0.45473       -8.27226        4.21671
C         -0.07553        1.63109        3.83888
C          0.67027        1.60561        2.67948
C          0.13546        0.60500        1.88727
C         -0.91572        0.05613        2.61251
N         -1.03235        0.68898        3.78398
C         -1.80418       -1.09760        2.24758
N         -1.01083       -2.33833        2.07282
C         -0.20876       -2.74090        3.28194
H          1.50334        2.25396        2.44305
H          0.05481        2.31314        4.66966
H          0.48378        0.31371        0.90613
H         -2.58221       -1.25295        3.01897
H         -2.36939       -0.85180        1.32854
C         -1.13526       -3.05424        4.45888
C          0.49996       -3.98161        2.87187
C          0.92432       -1.79143        3.77335
H         -1.86708       -3.78042        4.11424
H         -0.58450       -3.50937        5.30282
H         -1.66095       -2.14740        4.83093
H          1.17105       -3.74989        2.00612
H          1.07633       -4.43349        3.69363
H         -0.31247       -4.62167        2.57506
H          1.59683       -1.48787        2.94642
H          0.57247       -0.92191        4.33858
H          1.54070       -2.31072        4.53690
Na        -7.25815        2.75666        9.01867
Mg        -3.94825        2.67303        8.78793
C         -3.99009       -5.02342        3.30422
C         -3.94138       -6.22763        1.25488
O         -3.45972       -5.08072        1.96622
C         -3.45377       -6.10359        4.26990
C         -5.47796       -6.42416        1.26524
H         -3.86279       -4.00847        3.71421
H         -5.09547       -5.08630        3.31067
H         -3.64601       -6.09543        0.20498
H         -3.44150       -7.16637        1.57662
H         -5.79852       -7.06634        0.41849
H         -5.80144       -6.93846        2.20017
H         -6.00722       -5.45140        1.18578
H         -2.37016       -6.00530        4.45887
H         -3.95845       -6.00638        5.25568
H         -3.67006       -7.12856        3.89779
H         -2.62381        1.88346       10.86330
C         -1.30739        3.41292       10.08115
C         -2.27430        2.25113        9.87489
C         -1.97969        4.55799       10.84581
H         -0.43510        3.04576       10.66562
H         -0.95383        3.77371        9.09222
H         -2.83804        4.93594       10.25992
H         -2.34962        4.19214       11.82942
C         -1.00956        5.71010       11.08683
H         -1.76215        1.41419        9.35521
H         -0.15056        5.36803       11.70255
H         -0.63389        6.10539       10.11943
H         -1.53072        6.52825       11.62770
C         -4.80633       -1.28439        7.49150
C         -5.94413       -1.15165        8.26899
C         -6.41826        0.12174        8.05199
C         -5.56074        0.71950        7.15982
N         -4.57822       -0.14453        6.81709
C         -5.66547        2.12464        6.61939
N         -5.58118        3.08460        7.72761
C         -5.65731        4.52722        7.42421
H         -6.37038       -1.90221        8.92506
H         -4.19473       -2.17068        7.42103
H         -7.29598        0.56603        8.50461
H         -4.83118        2.28919        5.90142
H         -6.63412        2.21700        6.07978
C         -6.92964        4.86535        6.61926
C         -5.75045        5.28371        8.76540
C         -4.38249        4.99033        6.69996
H         -7.82957        4.51191        7.17149
H         -7.02506        5.96271        6.47423
H         -6.92298        4.39248        5.61761
H         -4.87618        5.06506        9.40504
H         -5.79446        6.38259        8.59813
H         -6.66217        4.99411        9.33030
H         -3.48893        4.71579        7.30403
H         -4.29065        4.52378        5.69961
H         -4.38545        6.09442        6.56999
