96
speciation1328.ct
Na         1.45356        2.05057        0.34964
Mg         6.34453       -0.40500       -2.73229
C          3.24741        4.10924        1.82408
C          1.54864        4.86684        0.34984
O          2.47723        3.84891        0.64367
C          2.47665        4.04431        3.14300
C          2.21710        6.09778       -0.25796
H          4.07573        3.38326        1.89966
H          3.79492        5.06675        1.73858
H          0.85094        4.46437       -0.41509
H          0.91996        5.13141        1.22147
H          2.77019        5.81573       -1.17817
H          1.43908        6.84607       -0.51133
H          2.91666        6.57403        0.45697
H          2.02090        3.05798        3.28923
H          3.19023        4.20552        3.97749
H          1.68946        4.81612        3.21660
H          8.04409        0.21754       -4.62140
C          9.23182        0.19604       -2.78958
C          7.96017        0.52734       -3.55817
C          9.51270       -1.30697       -2.78458
H         10.08495        0.73485       -3.25743
H          9.11185        0.55405       -1.74402
H          8.66078       -1.84577       -2.31744
H          9.63746       -1.66950       -3.82819
C         10.78513       -1.61143       -1.99693
H          7.82023        1.62684       -3.52514
H         11.65572       -1.09502       -2.45566
H         10.67692       -1.27233       -0.94418
H         10.97741       -2.70453       -2.00050
C         -1.71998        1.58687        0.33989
C         -2.56408        0.49690        0.22880
C         -1.75350       -0.61819        0.10976
C         -0.45970       -0.15744        0.16066
N         -0.43805        1.17271        0.29996
C          0.79976       -0.95845        0.06835
N          1.96699       -0.04597        0.14083
C          2.80161       -0.13577        1.35644
H         -3.64786        0.51904        0.22584
H         -2.02601        2.62054        0.44275
H         -2.08048       -1.64718       -0.00241
H          0.82420       -1.51134       -0.89471
H          0.77639       -1.71229        0.87214
C          3.33297       -1.51512        1.59009
C          4.00839        0.76902        1.06958
C          2.03212        0.26067        2.61586
H          3.67478       -1.69615        0.60966
H          4.17432       -1.55839        2.31355
H          2.57739       -2.27712        1.86533
H          3.66384        1.74329        0.73058
H          4.70054        0.84359        1.93366
H          4.58495        0.39574        0.19980
H          1.52390        1.21755        2.47213
H          1.24536       -0.49238        2.84188
H          2.72316        0.29690        3.48723
Mg         3.21185       -0.01912       -1.47846
C          3.72607        2.40629       -2.99801
C          1.54921        1.72069       -3.22613
O          2.86196        1.28512       -2.90773
C          5.16397        2.00341       -2.78746
C          0.55716        0.57661       -3.25189
H          3.69284        2.82338       -4.03368
H          3.46048        3.19482       -2.25886
H          1.19173        2.48965       -2.50357
H          1.53605        2.13481       -4.26142
H          0.44940        0.17494       -2.24502
H         -0.43366        0.95255       -3.58160
H          0.87201       -0.22672       -3.94342
H          5.41462        1.22347       -3.52523
H          5.82252        2.88049       -2.96726
H          5.32673        1.63358       -1.75533
C          4.89148       -5.46410        0.80147
C          3.58606       -5.13742        0.52916
C          3.61365       -3.91210       -0.12070
C          4.90284       -3.49552       -0.27705
N          5.75203       -4.46921        0.31066
C          5.48567       -2.15166       -0.86687
N          4.76849       -1.31448       -1.92665
C          4.47124       -2.20130       -3.15276
H          2.70528       -5.71676        0.78706
H          5.19523       -6.36612        1.32324
H          2.71035       -3.40183       -0.41225
H          6.48774       -2.39332       -1.23709
H          5.77169       -1.49312       -0.01982
C          3.41182       -3.32082       -2.95430
C          3.91095       -1.35016       -4.29194
C          5.74502       -2.91783       -3.69636
H          2.47179       -2.93050       -2.51667
H          3.13280       -3.79575       -3.91909
H          3.82147       -4.20406       -2.44166
H          4.61400       -0.56688       -4.61683
H          3.70912       -1.99473       -5.18873
H          2.94753       -0.91892       -3.99725
H          6.51888       -2.19060       -4.01800
H          6.18970       -3.61922       -2.96001
H          5.49316       -3.55919       -4.56902
