110
speciation2238.ct
Na         1.03639        0.04260       -0.08283
Mg         2.82815       -3.42931        3.62536
C         -1.78904        1.33190       -0.41214
C         -1.76831       -0.38880        1.18293
O         -1.28361        0.04260       -0.08283
C         -1.47798        2.44711        0.60556
C         -1.19132       -1.74716        1.56324
H         -1.32414        1.62221       -1.37602
H         -2.88555        1.28357       -0.59671
H         -1.46901        0.29651        2.00317
H         -2.87565       -0.49053        1.14700
H         -0.09051       -1.67950        1.69628
H         -1.63614       -2.06954        2.53129
H         -1.42892       -2.50837        0.79318
H         -0.39539        2.46715        0.84977
H         -1.76902        3.42958        0.17812
H         -2.06884        2.32738        1.53904
H          5.09721       -3.93163        2.12596
C          5.03332       -5.99122        2.76264
C          4.77641       -4.48262        3.03584
C          4.24732       -6.51455        1.55250
H          6.11954       -6.14316        2.55044
H          4.78581       -6.58707        3.66743
H          3.17034       -6.36990        1.73441
H          4.53633       -5.94165        0.64560
C          4.49595       -8.00411        1.28104
H          5.47831       -4.19378        3.84846
H          5.56237       -8.19577        1.03347
H          4.21078       -8.62207        2.15922
H          3.87754       -8.32810        0.41520
C          1.90141       -0.60962        4.20649
C          1.75009        0.68401        3.74850
C          2.31591        0.72388        2.50582
C          2.81783       -0.53933        2.26104
N          2.54297       -1.38091        3.29542
C          3.55667       -0.93935        1.02755
N          3.40639        0.04260       -0.08283
C          4.15858       -0.39435       -1.30805
H          1.27464        1.51345        4.25526
H          1.53979       -0.96139        5.16237
H          2.35894        1.59167        1.86809
H          3.11626       -1.90770        0.73589
H          4.61170       -1.07474        1.33282
C          3.71410       -1.79369       -1.79992
C          3.90678        0.62234       -2.43043
C          5.69118       -0.44898       -1.07086
H          2.61754       -1.82619       -1.95876
H          4.22392       -2.04887       -2.75481
H          4.00976       -2.59398       -1.08833
H          4.30962        1.61968       -2.15087
H          4.42199        0.30265       -3.36529
H          2.82306        0.71738       -2.64253
H          6.06249        0.54123       -0.77410
H          5.99368       -1.18087       -0.29651
H          6.22238       -0.75603       -2.00014
Na         4.00027        2.13432        0.65549
Mg         6.56101        4.15400        0.69468
C          1.65465       -5.66962        5.06575
C          0.19431       -3.83486        4.64953
O          1.53890       -4.26292        4.86886
C          1.01112       -6.54141        3.97827
C         -0.72961       -4.05517        5.86134
H          2.73562       -5.90756        5.10663
H          1.26046       -5.95672        6.06638
H          0.20587       -2.74572        4.46502
H         -0.24238       -4.28294        3.73370
H         -0.33551       -3.52633        6.75430
H         -1.74319       -3.65830        5.63495
H         -0.85152       -5.13205        6.10048
H          1.38269       -6.23717        2.98502
H          1.26034       -7.60822        4.15865
H         -0.09609       -6.46405        3.98792
H          7.90202        1.95572        1.18464
C          9.25268        3.04860       -0.13907
C          7.86187        2.66083        0.32927
C         10.03073        3.81542        0.92527
H          9.79738        2.11696       -0.40774
H          9.15456        3.68091       -1.04859
H          9.49317        4.75752        1.16857
H         10.12258        3.20250        1.84858
C         11.42798        4.14796        0.40629
H          7.36324        2.18635       -0.52989
H         11.99160        3.21229        0.19839
H         11.35992        4.74151       -0.53099
H         11.98294        4.73817        1.16367
C          7.13039        6.84768       -0.59235
C          6.27449        7.90136       -0.85339
C          5.02575        7.52536       -0.38591
C          5.18222        6.25932        0.14756
N          6.44732        5.85707        0.00340
C          4.13794        5.38932        0.81216
N          4.76042        4.15126        1.43589
C          4.81917        4.15764        2.89614
H          6.53320        8.83734       -1.33219
H          8.18447        6.80269       -0.83236
H          4.11944        8.11551       -0.42329
H          3.36510        5.11820        0.06593
H          3.64425        6.02985        1.57124
C          3.41543        4.27381        3.55737
C          5.43364        2.82038        3.33319
C          5.72207        5.29877        3.41693
H          2.73614        3.48183        3.19390
H          3.49958        4.18119        4.66199
H          2.92254        5.25084        3.38271
H          6.45321        2.70683        2.91485
H          5.50447        2.76198        4.44100
H          4.81135        1.97283        2.98182
H          6.74383        5.21863        2.98786
H          5.31352        6.30012        3.16639
H          5.80849        5.24928        4.52496
