96
speciation1553.ct
Na         2.97135       -0.98359        1.09433
Mg         2.09472        4.72818       -1.05860
C          3.57908        7.19257       -0.63388
C          4.59756        5.56530       -2.03679
O          3.70941        5.80867       -0.95579
C          3.22223        8.14970       -1.78691
C          6.04982        5.93127       -1.70006
H          2.80698        7.27201        0.14564
H          4.49799        7.55256       -0.12827
H          4.58781        4.47636       -2.23764
H          4.26308        6.04791       -2.97681
H          6.38075        5.38137       -0.79384
H          6.71205        5.65809       -2.54762
H          6.16663        7.02120       -1.53026
H          2.27261        7.87866       -2.25782
H          3.09597        9.17744       -1.39075
H          4.01715        8.19323       -2.55938
H          0.98811        6.44458       -2.97170
C         -0.11266        4.87040       -3.78502
C          1.15061        5.36378       -3.06272
C         -1.32438        5.06132       -2.87342
H         -0.26270        5.42393       -4.74026
H         -0.01370        3.81980       -4.10527
H         -1.12419        4.61925       -1.87440
H         -1.50514        6.14899       -2.74491
C         -2.56005        4.37971       -3.44241
H          1.99800        5.19594       -3.76367
H         -2.79830        4.76384       -4.45608
H         -2.39111        3.28096       -3.49774
H         -3.42011        4.56736       -2.76649
C          5.77567       -0.55746       -0.00549
C          6.68761        0.30059       -0.55239
C          6.05499        1.52650       -0.68691
C          4.76480        1.36685       -0.23223
N          4.60144        0.09123        0.21321
C          3.72668        2.48385       -0.12287
N          2.78870        2.70443       -1.26913
C          1.78970        1.59166       -1.48817
H          7.69862        0.05751       -0.82200
H          5.93682       -1.60588        0.24491
H          6.49778        2.43093       -1.07084
H          3.22380        2.40489        0.84497
H          4.32000        3.41712       -0.02599
C          0.93556        1.28277       -0.24962
C          0.86102        2.04122       -2.58613
C          2.39896        0.26594       -2.02252
H          0.37316        2.18278        0.05392
H          0.18125        0.50015       -0.48346
H          1.55492        0.90065        0.58508
H          1.43572        2.22051       -3.52443
H          0.06230        1.29648       -2.79960
H          0.38394        2.95232       -2.21020
H          3.00206        0.44178       -2.92544
H          2.98408       -0.30386       -1.30649
H          1.59124       -0.44574       -2.30587
Mg         3.89190        2.37651       -2.89256
C          5.01139        0.67878       -4.83033
C          6.24970        2.64640       -4.31305
O          4.96739        2.05683       -4.47519
C          5.74780       -0.21711       -3.82873
C          7.04630        2.72831       -5.62099
H          3.96490        0.32436       -4.90710
H          5.41614        0.53991       -5.85350
H          6.09146        3.69255       -3.98279
H          6.84024        2.15816       -3.51393
H          6.47749        3.30133       -6.38340
H          8.01158        3.24386       -5.43290
H          7.28439        1.72160       -6.01987
H          5.31437       -0.08129       -2.82318
H          5.63417       -1.28115       -4.11927
H          6.83616       -0.00027       -3.80507
C          1.00580        4.07627        1.76997
C          0.31847        4.42098        2.91138
C         -0.12754        5.68929        2.71771
C          0.30963        6.07657        1.46177
N          0.99513        5.06757        0.84367
C          0.03755        7.45982        0.96686
N         -1.36464        7.54764        0.55486
C         -1.82075        8.87062        0.07811
H          0.18024        3.80714        3.79824
H          1.47616        3.13049        1.66650
H         -0.68674        6.27701        3.43618
H          0.23899        8.16008        1.81369
H          0.70609        7.69672        0.13033
C         -0.91438        9.43383       -1.04267
C         -3.22936        8.66747       -0.49732
C         -1.89913        9.87187        1.24531
H         -0.83559        8.70998       -1.88130
H         -1.33132       10.38674       -1.43180
H          0.10607        9.66241       -0.66900
H         -3.91610        8.28219        0.28711
H         -3.63882        9.62018       -0.89073
H         -3.20180        7.92529       -1.32613
H         -2.51969        9.45709        2.06991
H         -0.89095       10.10540        1.65101
H         -2.35057       10.82750        0.91009
