83
speciation537.ct
Na         1.02292        0.07957       -0.05606
Mg         4.24719       -1.27810        1.19672
C         -1.72834        0.31729       -1.39023
C         -1.74164        1.04989        0.88069
O         -1.29708        0.07957       -0.05606
C         -1.42613        1.71670       -1.94482
C         -3.25000        0.98006        1.13723
H         -1.18713       -0.41041       -2.03061
H         -2.80518        0.07071       -1.50416
H         -1.24083        0.83448        1.84785
H         -1.42671        2.07632        0.60655
H         -3.52801       -0.02188        1.52686
H         -3.53028        1.74608        1.89122
H         -3.82880        1.18867        0.21448
H         -0.34833        1.95362       -1.82730
H         -1.68717        1.74793       -3.02335
H         -2.04080        2.49349       -1.44438
C          6.14031        2.91127        1.93697
C          5.30130        3.99851        2.00943
C          4.11667        3.61210        1.44623
C          4.27721        2.28750        1.05980
N          5.52028        1.87667        1.33541
C          3.18240        1.50511        0.39752
N          3.39292        0.07957       -0.05606
C          3.66056        0.01458       -1.51606
H          5.53018        4.97946        2.41665
H          7.16076        2.88673        2.29472
H          3.22938        4.22174        1.31791
H          2.30833        1.54095        1.06657
H          2.88943        2.16393       -0.42871
C          5.05984        0.62957       -1.77733
C          3.57685       -1.44387       -1.88660
C          2.56623        0.65849       -2.43480
H          5.82600        0.13546       -1.15623
H          5.37555        0.53722       -2.83447
H          5.07746        1.71261       -1.52027
H          2.54673       -1.84350       -1.95774
H          4.08987       -1.64690       -2.85334
H          3.92883       -1.95096       -0.99547
H          1.59510        0.11914       -2.33033
H          2.32751        1.72515       -2.30491
H          2.87788        0.56245       -3.49915
Na         6.39473        0.05217        0.89945
C          2.31844       -2.83551        2.30143
C          1.87401       -0.55116        2.78930
O          2.87390       -1.56509        2.60634
C          1.35964       -2.86369        1.09825
C          0.98965       -0.72563        4.03236
H          3.17932       -3.48122        2.04037
H          1.85216       -3.29555        3.19650
H          2.37649        0.42578        2.91446
H          1.20396       -0.46322        1.92753
H          1.58964       -0.63302        4.95908
H          0.21272        0.07485        4.04138
H          0.44772       -1.69298        4.02474
H          1.82409       -2.36280        0.22697
H          1.13420       -3.91515        0.82866
H          0.39021       -2.37537        1.32873
C          9.62021        0.07010        0.94065
C         10.45248       -0.83537        1.58213
C          9.62441       -1.75306        2.23837
C          8.34814       -1.36484        1.95303
N          8.34647       -0.26834        1.18752
C          7.03166       -2.03225        2.23933
N          6.22537       -2.11051        0.98498
C          6.81526       -3.03395       -0.09544
H         11.53638       -0.83830        1.52920
H          9.91823        0.88878        0.30103
H          9.96359       -2.60496        2.79294
H          7.15825       -3.01951        2.74563
H          6.47348       -1.37916        2.95227
C          6.88607       -4.49916        0.38206
C          5.96806       -3.08891       -1.35056
C          8.18772       -2.56664       -0.65739
H          5.87230       -4.84990        0.67929
H          7.23325       -5.15497       -0.45064
H          7.58344       -4.63812        1.22653
H          5.94711       -2.07166       -1.78013
H          6.40909       -3.72065       -2.14999
H          5.00604       -3.59723       -1.13895
H          8.12196       -1.50382       -0.98433
H          9.02612       -2.73221        0.02609
H          8.48530       -3.14330       -1.55987
