83
speciation710.ct
Na         7.24820        1.77823       -0.72112
Mg         3.22646        3.53789       -4.12289
C          5.56609        6.32865       -5.95635
C          4.78810        5.25757       -7.85016
O          4.55279        5.31794       -6.34204
C          5.50651        7.71641       -6.62230
C          6.25665        5.10104       -8.48875
H          5.54659        6.49179       -4.86783
H          6.61132        5.98190       -6.17172
H          4.28771        4.49038       -8.44081
H          4.32433        6.13839       -8.34712
H          6.89092        4.27410       -8.11410
H          6.17524        4.91095       -9.59445
H          6.92339        5.97091       -8.40635
H          4.52607        8.16652       -6.44379
H          6.31273        8.34693       -6.18836
H          5.72492        7.70525       -7.71801
C          5.55114       -0.87567       -0.68700
C          4.25837       -1.34635       -0.52052
C          3.45683       -0.23789       -0.33493
C          4.30576        0.86776       -0.39021
N          5.56039        0.46233       -0.61178
C          3.91975        2.26357       -0.18788
N          2.92453        2.76845       -1.13943
C          2.55272        4.17860       -0.80921
H          3.94752       -2.38093       -0.51441
H          6.43161       -1.48336       -0.83261
H          2.39402       -0.23400       -0.14850
H          3.53494        2.31725        0.85162
H          4.85632        2.84937       -0.25024
C          3.77984        5.13451       -0.78463
C          1.65465        4.65241       -1.92126
C          1.75180        4.30477        0.50378
H          4.37239        5.03182       -1.72271
H          3.45189        6.19392       -0.70299
H          4.44307        4.94581        0.08128
H          0.76585        3.99660       -2.05296
H          1.33024        5.70119       -1.76168
H          2.28776        4.62140       -2.80328
H          0.85796        3.64680        0.47747
H          2.36233        4.06494        1.39311
H          1.40428        5.35517        0.63221
Na         4.23453        2.37686       -3.07527
C          0.49918        3.80102       -5.75992
C          1.53815        5.81088       -5.00810
O          1.41416        4.40144       -4.82069
C          0.45055        4.31950       -7.22933
C          0.28201        6.55718       -4.55433
H          0.76457        2.74810       -5.87280
H         -0.52112        3.85004       -5.34239
H          2.39695        6.17699       -4.40858
H          1.81617        6.08382       -6.05075
H          0.05337        6.31891       -3.49969
H          0.43250        7.65252       -4.64886
H         -0.59624        6.27244       -5.16851
H          1.41521        4.21888       -7.75414
H         -0.28624        3.70823       -7.79549
H          0.11008        5.37124       -7.30972
C          1.75461        0.56896       -4.85803
C          1.96999       -0.73535       -5.30395
C          3.31452       -0.91087       -5.35141
C          3.86951        0.29341       -4.96488
N          2.91699        1.23234       -4.67046
C          5.32117        0.56246       -4.99875
N          5.54452        1.98528       -5.01111
C          5.27404        2.78902       -6.05150
H          1.23773       -1.46948       -5.57444
H          0.75640        0.96868       -4.74684
H          3.86317       -1.78916       -5.69538
H          5.84323        0.01896       -5.80826
H          5.74102        0.13452       -4.05169
C          3.73783        2.81644       -6.48564
C          5.92024        3.85202       -5.05348
C          5.94933        2.15279       -7.29875
H          3.04222        3.16974       -5.79237
H          3.33519        3.43895       -7.22901
H          3.38811        1.86105       -6.93041
H          6.95956        4.12470       -5.29680
H          5.10573        4.39139       -4.50061
H          6.12446        3.69604       -3.93242
H          7.02393        1.94112       -7.17515
H          5.44980        1.18003       -7.52631
H          5.68566        2.64086       -8.25011
