80
speciation909.ct
Na         1.34325        1.90507       -0.07329
Mg         3.78021       -0.67434       -4.98425
H          2.25439       -2.40103       -3.61226
C          1.23252       -2.52573       -5.51310
C          2.01449       -1.73487       -4.46667
C          2.00842       -3.76279       -5.97164
H          0.27221       -2.86354       -5.05792
H          1.00275       -1.86273       -6.37459
H          2.98709       -3.46283       -6.38874
H          2.19929       -4.42992       -5.10251
C          1.22402       -4.54180       -7.02606
H          1.36187       -0.92456       -4.08313
H          0.26111       -4.90146       -6.60381
H          1.01551       -3.89890       -7.90803
H          1.81502       -5.42086       -7.35920
C         -1.75386        1.20967       -0.10033
C         -2.41166       -0.00766       -0.11352
C         -1.43022       -0.98731       -0.12287
C         -0.22032       -0.32178       -0.10242
N         -0.42648        1.00638       -0.08709
C          1.15292       -0.97145       -0.08314
N          2.24500        0.03300       -0.00400
C          3.08166        0.01736        1.21626
H         -3.47787       -0.16436       -0.12833
H         -2.21644        2.18733       -0.09467
H         -1.58393       -2.05712       -0.13519
H          1.28168       -1.56656       -1.01071
H          1.16893       -1.67633        0.76845
C          3.81305       -1.33629        1.38146
C          4.11312        1.15172        1.07060
C          2.24269        0.30756        2.47862
H          4.37265       -1.60947        0.47236
H          4.51990       -1.29503        2.23788
H          3.11263       -2.16982        1.58437
H          3.60373        2.13683        1.00703
H          4.81130        1.17318        1.93489
H          4.70304        1.04467        0.14492
H          1.71944        1.28268        2.38215
H          1.48281       -0.47838        2.66045
H          2.90024        0.35268        3.37455
Na         5.64984        5.14099       -3.37136
Mg         3.38218        0.08335       -1.63630
H          5.45406       -0.16374       -7.05254
C          3.97392       -1.23113       -8.18240
C          4.78088       -1.03629       -6.90075
C          3.07831       -0.02557       -8.45219
H          4.67519       -1.37973       -9.03625
H          3.35172       -2.14045       -8.09559
H          2.40511        0.12700       -7.58183
H          3.70111        0.88596       -8.59122
C          2.22572       -0.24709       -9.69938
H          5.42039       -1.93554       -6.76752
H          2.87099       -0.37974      -10.59403
H          1.59088       -1.15122       -9.57118
H          1.56498        0.63036       -9.85991
C          2.71712        4.47699       -3.78925
C          1.74497        3.50979       -3.89271
C          2.37222        2.28885       -3.74576
C          3.71631        2.56143       -3.56054
N          3.91380        3.90405       -3.58819
C          4.85829        1.58637       -3.36490
N          4.51935        0.13370       -3.26860
C          5.75813       -0.68662       -3.00795
H          0.69296        3.69244       -4.05572
H          2.56895        5.54707       -3.85408
H          1.90099        1.32080       -3.77065
H          5.31339        1.92211       -2.41092
H          5.54771        1.78604       -4.20087
C          6.39892       -0.38898       -1.63459
C          5.36342       -2.17113       -3.03526
C          6.86799       -0.47272       -4.07225
H          5.68408       -0.59161       -0.83462
H          7.27849       -1.04667       -1.46189
H          6.77300        0.64954       -1.54049
H          4.93953       -2.44382       -4.02442
H          6.25430       -2.81474       -2.85669
H          4.61221       -2.39215       -2.24861
H          6.50986       -0.70762       -5.08055
H          7.27791        0.55747       -4.06844
H          7.73638       -1.13618       -3.86902
