95
speciation1406.ct
Na         4.08001        1.46395        4.52657
Mg         0.32570       -1.27580        0.12473
C          3.75446        2.32461        7.28217
C          2.53000        3.64156        5.81788
O          3.84450        3.15096        6.10168
C          5.07851        1.80479        7.84048
C          1.83751        4.39816        6.98341
H          3.37063        2.89074        8.15236
H          3.09859        1.44526        7.08808
H          2.62140        4.35370        4.97646
H          1.86201        2.81239        5.48621
H          0.94406        4.94496        6.62382
H          1.45889        3.69630        7.76237
H          2.54266        5.11522        7.45519
H          5.75047        2.63928        8.13123
H          4.84608        1.23775        8.77620
H          5.58722        1.10749        7.14841
H          0.87594        1.47588        1.26982
C         -0.43846        2.14991       -0.26308
C          0.64384        1.16018        0.22609
C         -1.71849        1.92351        0.53664
H         -0.11456        3.21919       -0.15852
H         -0.61586        1.96402       -1.34202
H         -1.92132        0.84103        0.49282
H         -1.57083        2.22241        1.59952
C         -2.93782        2.64806       -0.03273
H          1.55906        1.42113       -0.35235
H         -2.88221        3.74645        0.12177
H         -3.04745        2.43194       -1.11691
H         -3.84257        2.26322        0.48568
C          2.43323       -3.48841        0.39129
C          3.52830       -3.97399        1.08669
C          3.81633       -3.04308        2.04489
C          2.91794       -2.00476        1.86118
N          2.03551       -2.28172        0.86446
C          2.94702       -0.74628        2.65938
N          4.32060       -0.25941        2.91753
C          5.18371        0.16647        1.76069
H          4.06682       -4.90163        0.92307
H          1.95675       -4.00743       -0.41841
H          4.62505       -3.08979        2.76720
H          2.49793       -0.97946        3.64515
H          2.31797        0.02713        2.18836
C          4.48381        1.20060        0.86504
C          6.46161        0.80332        2.33716
C          5.65888       -1.00951        0.86607
H          4.16904        2.08574        1.45392
H          5.17150        1.53858        0.05685
H          3.60437        0.74623        0.37089
H          7.00267        0.07733        2.98249
H          7.15329        1.10671        1.51744
H          6.22284        1.70582        2.93514
H          6.18714       -1.78258        1.46472
H          4.83529       -1.46486        0.28602
H          6.37464       -0.65288        0.09298
Na        -0.67780       -0.87382        2.44666
Mg        -0.04440       -4.07216       -1.32592
H          0.64737       -5.96128       -3.26790
C          2.23912       -6.54093       -1.92282
C          1.29483       -5.45791       -2.51942
C          1.48183       -7.65112       -1.18473
H          2.82599       -7.01326       -2.74678
H          2.96331       -6.06107       -1.23088
H          0.88872       -7.19994       -0.36227
H          0.79513       -8.16981       -1.89005
C          2.43172       -8.69677       -0.58395
H          1.95366       -4.75356       -3.08147
H          3.01595       -9.21365       -1.37707
H          3.13911       -8.22263        0.13063
H          1.84437       -9.46347       -0.03352
C         -3.49776       -2.00670        3.31737
C         -4.37220       -3.04472        3.05869
C         -3.77338       -3.82902        2.09461
C         -2.56103       -3.21702        1.79243
N         -2.39643       -2.11829        2.54658
C         -1.56084       -3.68915        0.77422
N         -1.28882       -2.73814       -0.33176
C         -2.48931       -2.45281       -1.22766
H         -5.34036       -3.20724        3.51876
H         -3.66242       -1.21015        4.02760
H         -4.19267       -4.72495        1.65135
H         -1.89817       -4.66267        0.35631
H         -0.60844       -3.90307        1.29331
C         -3.67428       -1.70265       -0.54543
C         -2.02850       -1.56470       -2.37913
C         -3.10543       -3.76331       -1.81482
H         -3.37258       -0.75093       -0.07181
H         -4.46162       -1.45708       -1.29921
H         -4.24276       -2.30442        0.18240
H         -1.23798       -2.06626       -2.96379
H         -2.88166       -1.33315       -3.06057
H         -1.64661       -0.60588       -1.97077
H         -2.35544       -4.35644       -2.36835
H         -3.56358       -4.40145       -1.02686
H         -3.94442       -3.52651       -2.51141
