66
speciation230.ct
Na         1.74986       -0.34567       -0.54873
Li         2.20628       -0.18134        0.79559
H          3.49162       -0.66835        3.38816
C          1.51314       -0.26834        4.18330
C          2.63734        0.01091        3.16992
C          1.95498        0.00447        5.63261
H          0.64494        0.37697        3.96589
H          1.17589       -1.31800        4.10708
H          2.79512       -0.67013        5.90554
H          2.29807        1.05824        5.74844
C          0.78690       -0.22388        6.58847
H          3.00991        1.01453        3.45707
H         -0.02941        0.49834        6.36829
H          0.39684       -1.25711        6.47383
H          1.11597       -0.07739        7.63826
C          5.15651        0.57496       -0.55058
C          6.21284       -0.24970       -0.93734
C          5.64457       -1.40993       -1.37927
C          4.30016       -1.23165       -1.23787
N          3.97392       -0.06358       -0.70299
C          3.18995       -2.13249       -1.51593
N          2.36677       -2.16856       -0.28705
C          2.72661       -3.24082        0.66780
H          7.27039       -0.02306       -0.88204
H          5.29877        1.55031       -0.13821
H          6.16160       -2.29882       -1.75133
H          3.51723       -3.10701       -1.91289
H          2.57988       -1.65210       -2.30932
C          4.20022       -3.16534        1.13419
C          1.82348       -3.09417        1.88008
C          2.43453       -4.62023        0.04080
H          4.42722       -2.17945        1.59355
H          4.40657       -3.95704        1.88575
H          4.90246       -3.34469        0.29643
H          0.75053       -3.14109        1.60427
H          2.05363       -3.85485        2.65554
H          2.00972       -2.11518        2.29276
H          1.37014       -4.66437       -0.27892
H          3.06404       -4.83751       -0.84173
H          2.62838       -5.43016        0.77096
Li         2.85776        2.02485       -1.39301
C         -1.50980       -0.93453        0.03804
C         -2.56360       -0.05286        0.21242
C         -2.04497        1.21378        0.04017
C         -0.70749        1.02708       -0.24925
N         -0.36968       -0.24721       -0.20585
C          0.30597        2.02440       -0.64443
N          1.59055        1.83798        0.07712
C          1.92304        2.95015        0.98722
H         -3.59473       -0.30484        0.43173
H         -1.57507       -2.01273        0.09839
H         -2.58827        2.14914        0.08544
H         -0.14973        3.02322       -0.59433
H          0.51229        1.81948       -1.71527
C          0.91316        2.95805        2.14618
C          3.35644        2.72662        1.48101
C          1.95079        4.33128        0.27655
H          0.91002        1.97908        2.63184
H          1.15501        3.73847        2.89382
H         -0.12070        3.13660        1.78072
H          4.08206        3.03724        0.71121
H          3.57423        3.31168        2.39838
H          3.57376        1.66051        1.61025
H          2.68326        4.30534       -0.56164
H          0.98928        4.66912       -0.14293
H          2.26943        5.11576        0.99342
