83
speciation701.ct
Na         4.05458        2.40140        1.01927
Mg        -1.45920        3.91742        3.69945
C         -2.31521        1.13665        4.52402
C         -4.34445        2.23843        4.05802
O         -2.92912        2.42295        4.36614
C         -2.48088        0.15952        3.33801
C         -5.20941        1.63471        5.18386
H         -1.24007        1.28757        4.65397
H         -2.63853        0.64805        5.46820
H         -4.47324        1.69034        3.10685
H         -4.90776        3.16395        3.87557
H         -5.44435        2.40329        5.95260
H         -6.17738        1.30895        4.73926
H         -4.77862        0.74685        5.67823
H         -2.13296        0.63608        2.39873
H         -1.89236       -0.76309        3.52073
H         -3.52955       -0.18722        3.21489
C          7.31581        2.68646        1.62500
C          8.29978        1.84251        2.11155
C          7.71004        0.61124        2.28949
C          6.39540        0.75804        1.88368
N          6.14104        2.02507        1.52097
C          5.36538       -0.31861        1.84336
N          4.08924        0.21076        1.30529
C          3.63347       -0.29193       -0.00336
H          9.33453        2.09397        2.32130
H          7.45485        3.73056        1.38565
H          8.18608       -0.28802        2.66655
H          5.19762       -0.66568        2.88689
H          5.75077       -1.16859        1.25537
C          3.38755       -1.82060       -0.00121
C          2.30252        0.38971       -0.27303
C          4.64002        0.06104       -1.13205
H          2.66696       -2.10074        0.79590
H          2.96047       -2.13365       -0.97828
H          4.31924       -2.40174        0.13313
H          2.44210        1.47977       -0.26096
H          1.88323        0.10554       -1.26745
H          1.56472        0.14213        0.51284
H          4.88518        1.14259       -1.11893
H          5.58665       -0.51120       -1.02916
H          4.21068       -0.18629       -2.12733
Na         2.63202       -0.39302        2.73387
C         -1.14041        7.23977        3.03021
C         -2.98714        6.07081        2.45987
O         -1.77791        5.96526        3.18482
C          0.20487        7.38002        3.70950
C         -3.53446        4.71156        2.35633
H         -0.96685        7.45464        1.94984
H         -1.78212        8.04971        3.46493
H         -3.71922        6.69431        3.02866
H         -2.86388        6.44270        1.41625
H         -3.52932        4.46587        3.41355
H         -4.55543        4.70642        1.92193
H         -2.85069        4.04290        1.79015
H          0.87213        6.55741        3.41513
H          0.65727        8.34073        3.36479
H          0.09609        7.42633        4.81061
C          1.12880        2.52770        4.72762
C          2.48794        2.33360        4.56517
C          2.86444        3.06502        3.48172
C          1.71917        3.65887        2.99937
N          0.62496        3.35500        3.76380
C          1.74969        4.55170        1.80192
N          2.29806        3.83075        0.63355
C          2.34811        4.62396       -0.62171
H          3.15435        1.73379        5.17975
H          0.55634        2.08237        5.52314
H          3.87132        3.16300        3.08822
H          2.41048        5.41005        2.05161
H          0.71873        4.90486        1.61633
C          3.37229        5.77193       -0.51155
C          2.77317        3.68268       -1.75932
C          0.96013        5.20348       -0.99605
H          4.36506        5.38537       -0.19743
H          3.48508        6.28323       -1.49147
H          3.04041        6.54280        0.21577
H          2.01279        2.88627       -1.90415
H          2.85749        4.22991       -2.72259
H          3.75353        3.21496       -1.53354
H          0.20404        4.38998       -1.04296
H          0.61285        5.97020       -0.27307
H          0.99885        5.70412       -1.98727
