66
speciation178.ct
Na         1.20762       -0.21777        0.25381
Mg         4.06529       -1.45340       -4.58841
H          5.87780       -0.83444       -6.15697
C          4.63773        0.84332       -6.71729
C          4.79591       -0.63333       -6.30751
C          3.23694        1.25904       -7.21400
H          4.98777        1.51943       -5.90750
H          5.31602        0.98046       -7.58685
H          3.33417        2.25052       -7.71041
H          2.88313        0.53495       -7.97978
C          2.18090        1.42889       -6.12440
H          4.43929       -1.27831       -7.13842
H          2.00540        0.48391       -5.57507
H          2.48607        2.23055       -5.41836
H          1.22696        1.74797       -6.60344
C          2.86631       -3.50387       -2.80594
C          2.42148       -3.73493       -1.52491
C          2.63481       -2.57783       -0.81828
C          3.21149       -1.66868       -1.69298
N          3.35257       -2.25337       -2.91146
C          3.63462       -0.24447       -1.34743
N          3.32463        0.05850        0.06722
C          3.64201        1.38841        0.59933
H          1.98573       -4.65255       -1.14906
H          2.83528       -4.21175       -3.62480
H          2.39337       -2.42360        0.22770
H          3.09466        0.45283       -2.01407
H          4.72528       -0.16945       -1.52974
C          2.59146        2.40878        0.12388
C          3.57399        1.24493        2.12681
C          5.05200        1.86806        0.19806
H          1.56914        2.09360        0.42213
H          2.78825        3.40806        0.56742
H          2.61459        2.51148       -0.98107
H          4.37119        0.54645        2.45860
H          3.73157        2.21974        2.63427
H          2.59554        0.82280        2.43593
H          5.81762        1.10766        0.45912
H          5.10437        2.06991       -0.89297
H          5.30019        2.81530        0.72414
Mg         3.98795       -1.38585        1.26470
C          8.78860       -3.19896        0.55916
C          8.19209       -2.05767        0.06974
C          6.83748       -2.14357        0.35102
C          6.61856       -3.29251        0.99590
N          7.81842       -4.02089        1.15414
C          5.29190       -3.77540        1.52223
N          4.65128       -2.83020        2.46218
C          5.34545       -2.57576        3.76373
H          8.70447       -1.24634       -0.43135
H          9.84401       -3.43304        0.50504
H          6.09093       -1.40022        0.11302
H          5.40241       -4.77623        1.98279
H          4.61466       -3.90593        0.65526
C          6.62045       -1.71488        3.60631
C          4.37329       -1.81393        4.67681
C          5.72308       -3.89805        4.47784
H          6.40433       -0.77552        3.05603
H          7.03674       -1.45170        4.60299
H          7.43916       -2.25553        3.09977
H          3.45807       -2.41415        4.86060
H          4.85023       -1.59731        5.65923
H          4.07765       -0.84988        4.22243
H          4.82505       -4.53292        4.62795
H          6.47796       -4.47444        3.90139
H          6.17820       -3.69107        5.47065
