110
speciation1960.ct
Na         1.03742       -0.17284        0.25477
Mg         2.92130        3.17888       -0.11808
C          1.79958        2.03902        2.19875
C         -0.49556        2.17165        1.80203
O          0.70814        1.50845        1.48831
C          1.77384        1.62773        3.67002
C         -1.58853        1.63544        0.92861
H          2.72017        1.63412        1.74163
H          1.85335        3.14021        2.08640
H         -0.80225        1.98352        2.85067
H         -0.41752        3.26930        1.60159
H         -1.73047        0.55037        1.09957
H         -2.53496        2.17832        1.14445
H         -1.27561        1.79049       -0.11445
H          1.60162        0.53297        3.73464
H          2.72485        1.89602        4.15291
H          0.95122        2.15793        4.19916
H          3.49057        4.55398        2.36648
C          4.61851        5.73160        0.99013
C          4.09442        4.37195        1.45259
C          3.44481        6.62085        0.58520
H          5.19783        6.22471        1.80778
H          5.30079        5.57142        0.12983
H          2.83900        6.07958       -0.16824
H          2.81052        6.83355        1.47706
C          3.91224        7.93559       -0.02682
H          4.97069        3.79376        1.80483
H          4.48805        8.53643        0.70822
H          4.54996        7.73234       -0.91315
H          3.02581        8.51940       -0.35476
C          0.28873        4.30110       -1.09668
C         -0.82817        4.13291       -1.87715
C         -0.69118        2.91051       -2.48952
C          0.51840        2.37773       -2.06600
N          1.13238        3.24350       -1.19558
C          1.04182        1.03479       -2.52928
N          0.24806       -0.07749       -1.96059
C          0.68413       -1.46189       -2.22771
H         -1.66734        4.81696       -1.98753
H          0.47359        5.16623       -0.47170
H         -1.39122        2.46693       -3.17272
H          2.08139        0.96018       -2.17958
H          1.00471        1.00346       -3.63905
C          2.18022       -1.65308       -1.93191
C         -0.21474       -2.33734       -1.33274
C          0.47000       -1.92125       -3.67328
H          2.46901       -1.25970       -0.95795
H          2.45597       -2.72664       -1.98924
H          2.78777       -1.10769       -2.68326
H         -1.28498       -2.25286       -1.63684
H          0.05936       -3.41272       -1.37900
H         -0.21194       -1.96471       -0.29225
H         -0.58461       -1.98652       -3.90822
H          0.97570       -1.25411       -4.39394
H          0.85378       -2.95628       -3.80775
Na        -2.26041       -3.30113       -4.89338
Mg        -1.55891       -0.27145       -2.87840
C          1.66861       -3.11587        1.51530
C          3.33058       -1.51631        2.08082
O          2.23361       -1.83739        1.22597
C          1.05999       -3.21785        2.91081
C          4.53503       -2.47503        1.96383
H          0.86784       -3.32592        0.80658
H          2.37520       -3.94683        1.30431
H          3.70546       -0.51432        1.80336
H          3.00284       -1.43738        3.13594
H          4.95200       -2.46864        0.93542
H          5.33092       -2.15465        2.67039
H          4.28035       -3.51799        2.24336
H          0.38529       -2.35452        3.08489
H          0.48004       -4.16063        2.99329
H          1.85220       -3.24469        3.68631
H          3.75384        0.61358       -0.25273
C          5.58280        1.68426        0.21327
C          4.25267        1.56657       -0.52322
C          6.56997        0.56944       -0.15259
H          6.03136        2.66352       -0.05552
H          5.38927        1.64625        1.30605
H          6.14834       -0.42117        0.12184
H          6.76627        0.58376       -1.24666
C          7.89452        0.76979        0.58589
H          4.42166        1.57175       -1.61937
H          8.34104        1.75134        0.31498
H          7.73408        0.73899        1.68488
H          8.61137       -0.03125        0.30856
C         -3.60757        1.49329       -1.46743
C         -4.90125        1.19953       -1.11264
C         -5.23311       -0.00267       -1.73893
C         -4.11112       -0.35904       -2.45391
N         -3.11506        0.48803       -2.20331
C         -3.92391       -1.50898       -3.39901
N         -2.71293       -1.29939       -4.24167
C         -2.84412       -0.59510       -5.55563
H         -5.52411        1.78882       -0.45555
H         -3.05034        2.35150       -1.13677
H         -6.15886       -0.52642       -1.66569
H         -4.82938       -1.65296       -4.01010
H         -3.79631       -2.42696       -2.78919
C         -3.12295        0.89511       -5.35595
C         -1.50008       -0.72896       -6.31102
C         -3.92646       -1.21744       -6.47468
H         -2.28862        1.34218       -4.78876
H         -3.18116        1.41822       -6.33529
H         -4.07437        1.05744       -4.81378
H         -1.25264       -1.79612       -6.50519
H         -1.54015       -0.21275       -7.29631
H         -0.67103       -0.27603       -5.73240
H         -3.71028       -2.28800       -6.67998
H         -4.94864       -1.12452       -6.06380
H         -3.94323       -0.68820       -7.45445
