96
speciation1601.ct
Na         0.07684        0.53619       -0.30216
Mg        -0.20176       -1.35478       -0.22397
C         -1.65792       -3.32044        1.41154
C          0.29017       -4.21029        0.46302
O         -0.58185       -3.11613        0.54605
C         -1.24807       -3.49394        2.89775
C         -0.35995       -5.48945       -0.05197
H         -2.28527       -2.46748        1.19540
H         -2.30673       -4.15849        1.07977
H          0.99764       -3.95837       -0.29690
H          0.83886       -4.38138        1.41524
H         -0.83053       -5.28671       -1.03724
H          0.42820       -6.25962       -0.16526
H         -1.11116       -5.88778        0.65731
H         -0.73679       -2.58580        3.28067
H         -2.13889       -3.69214        3.52765
H         -0.59757       -4.37166        3.05685
H         -0.79153       -2.28074       -2.73818
C          1.22008       -2.73047       -3.04753
C          0.16428       -1.82158       -2.41223
C          1.10775       -2.83898       -4.58423
H          2.23179       -2.35756       -2.81713
H          1.09270       -3.75068       -2.62914
H          1.87635       -3.56639       -4.92550
H          0.11013       -3.23233       -4.87878
C          1.36701       -1.51750       -5.31325
H          0.31597       -0.80772       -2.83382
H          0.57142       -0.77578       -5.09725
H          2.35310       -1.10032       -5.01738
H          1.37704       -1.69532       -6.41013
C         -5.81339       -0.70446        2.20008
C         -5.10563       -1.72273        2.74369
C         -3.79447       -1.35952        2.58140
C         -3.72413       -0.21503        1.81237
N         -4.97215        0.21462        1.69900
C         -2.49940        0.56320        1.44467
N         -1.95661        0.13744        0.09960
C         -2.84372        0.55113       -1.06058
H         -5.49996       -2.56651        3.29625
H         -6.88407       -0.57218        2.28205
H         -2.98962       -1.84596        3.03622
H         -1.80690        0.44959        2.27718
H         -2.70053        1.65130        1.48916
C         -3.32354        2.03125       -0.97827
C         -2.06391        0.44312       -2.34645
C         -4.06928       -0.39230       -1.23783
H         -2.45366        2.72057       -0.93034
H         -3.91504        2.29179       -1.88504
H         -3.99847        2.22851       -0.12196
H         -1.90496       -0.60989       -2.50986
H         -2.65987        0.77228       -3.22396
H         -1.11813        1.02456       -2.30921
H         -3.74486       -1.45437       -1.26256
H         -4.86068       -0.29582       -0.49855
H         -4.59862       -0.16191       -2.18793
Mg        -5.94564        1.94729        1.80031
C         -6.43213        4.78992        1.21405
C         -7.25360        3.88920        3.24426
O         -6.89468        3.63642        1.89907
C         -5.24541        5.51573        1.85991
C         -7.62636        2.57812        3.92408
H         -6.12115        4.46268        0.20014
H         -7.27701        5.49820        1.06134
H         -6.40793        4.29943        3.83340
H         -8.13624        4.56438        3.28580
H         -6.75475        1.88725        3.92331
H         -7.91613        2.77387        4.97887
H         -8.47507        2.09560        3.39804
H         -4.40707        4.80987        2.02962
H         -4.90703        6.33020        1.18556
H         -5.53579        5.99961        2.81581
C          3.96137       -4.22006       -0.33794
C          5.06707       -3.63415        0.21868
C          4.85998       -2.25591        0.22814
C          3.64274       -2.01652       -0.29244
N          3.05821       -3.21717       -0.69219
C          2.95311       -0.67790       -0.43873
N          1.72540       -0.56046        0.40017
C          1.94228       -0.38236        1.86388
H          5.92356       -4.17504        0.60369
H          3.78860       -5.27563       -0.48692
H          5.53721       -1.51551        0.61280
H          2.68015       -0.53380       -1.50334
H          3.66000        0.14356       -0.22293
C          3.02454        0.66560        2.21158
C          0.63521        0.09663        2.44652
C          2.28024       -1.72134        2.54492
H          2.79339        1.64796        1.74321
H          3.07839        0.81338        3.31421
H          4.03887        0.34110        1.89869
H         -0.11113       -0.67768        2.19362
H          0.68298        0.20705        3.55036
H          0.35669        1.08008        2.00510
H          1.50035       -2.46519        2.31471
H          3.25563       -2.12219        2.23434
H          2.32612       -1.59909        3.64598
