83
speciation445.ct
Na         0.97668       -0.22004        0.26006
Mg        -0.29160       -5.28819       -2.71228
C          0.05681        2.00810        1.58280
C         -1.90662        1.28958        0.52400
O         -0.47653        1.30167        0.47932
C         -0.24404        1.33837        2.93007
C         -2.54015        0.58844       -0.67757
H          1.15779        1.99716        1.44860
H         -0.23748        3.08116        1.57144
H         -2.31020        0.80005        1.43410
H         -2.27471        2.33979        0.48808
H         -2.37670       -0.50078       -0.66213
H         -3.64242        0.74301       -0.64380
H         -2.14694        0.99152       -1.62956
H         -0.03194        0.24975        2.86572
H          0.38436        1.78680        3.72538
H         -1.30303        1.49144        3.22539
C         -1.34698       -2.19509        0.86760
C         -1.85393       -3.44585        0.60165
C         -0.94679       -4.06445       -0.22627
C          0.07151       -3.15782       -0.43864
N         -0.18097       -2.01040        0.21857
C          1.30969       -3.40283       -1.23729
N          0.99070       -3.76569       -2.62907
C          2.17579       -4.08059       -3.47189
H         -2.78022       -3.85940        0.97649
H         -1.81790       -1.45308        1.49457
H         -1.02089       -5.06297       -0.61898
H          1.92937       -2.48227       -1.19999
H          1.83109       -4.22906       -0.72345
C          2.96459       -5.27816       -2.89793
C          1.65948       -4.46809       -4.86815
C          3.10984       -2.86425       -3.61700
H          2.30113       -6.16153       -2.77606
H          3.80010       -5.55712       -3.57507
H          3.42397       -5.04231       -1.91698
H          1.10647       -3.62148       -5.32789
H          2.50787       -4.73266       -5.53779
H          0.97650       -5.34286       -4.80915
H          2.55416       -1.99476       -4.02645
H          3.56570       -2.57291       -2.64945
H          3.94970       -3.10148       -4.30619
Na         5.78140       -3.53456        2.79002
C         -1.17933       -7.78110       -1.85833
C         -2.16358       -7.10024       -3.88637
O         -1.57391       -6.68406       -2.67195
C         -0.04694       -8.62202       -2.45218
C         -2.62992       -5.88348       -4.68257
H         -0.81462       -7.36319       -0.90118
H         -2.04847       -8.41839       -1.59800
H         -1.46135       -7.67842       -4.52677
H         -3.07615       -7.70344       -3.66428
H         -1.75295       -5.29675       -5.03291
H         -3.20620       -6.22272       -5.56899
H         -3.27947       -5.23648       -4.05983
H          0.79830       -7.97317       -2.75272
H          0.31527       -9.35021       -1.69112
H         -0.39094       -9.21225       -3.32685
C          3.47781        1.40338       -0.59333
C          4.84445        1.58201       -0.70253
C          5.42777        0.46876       -0.14992
C          4.38988       -0.33393        0.29194
N          3.18796        0.23097        0.00720
C          4.62479       -1.63605        0.98830
N          5.52977       -1.50413        2.14896
C          5.08484       -0.78039        3.36037
H          5.36058        2.42876       -1.13304
H          2.73249        2.10318       -0.92956
H          6.49353        0.27688       -0.06223
H          3.68141       -2.14465        1.25741
H          5.14533       -2.29907        0.25919
C          3.79720       -1.40210        3.92944
C          6.21428       -0.90631        4.39963
C          4.84951        0.73033        3.11980
H          3.94891       -2.47996        4.14745
H          3.50070       -0.88813        4.86869
H          2.95852       -1.29393        3.21082
H          7.15901       -0.47960        3.99416
H          5.96676       -0.36161        5.33698
H          6.40375       -1.97008        4.65492
H          5.76395        1.22339        2.72614
H          4.00056        0.92011        2.43940
H          4.57925        1.22707        4.07798
