81
speciation756.ct
Na         1.28215        1.89929        0.53348
Mg         3.38218        0.08335       -1.63630
C          5.82913        0.59826       -3.16231
C          3.83203        0.49734       -4.42528
O          4.49078        0.13243       -3.22758
C          5.97214        2.12432       -3.19886
C          2.40061       -0.01872       -4.40122
H          6.25858        0.23393       -2.20669
H          6.44136        0.13500       -3.96665
H          3.76626        1.59681       -4.55481
H          4.34325        0.02313       -5.29272
H          1.83223        0.47414       -3.58376
H          1.90657        0.21704       -5.36870
H          2.38561       -1.11801       -4.24869
H          5.34863        2.57514       -2.41690
H          7.02856        2.40930       -3.01750
H          5.68074        2.54829       -4.18096
H          1.18332        5.73005       -4.63145
C          2.22046        7.13079       -3.32317
C          0.95756        6.40995       -3.78239
C          2.85851        7.96276       -4.44547
H          1.97795        7.79445       -2.46513
H          2.95136        6.36569       -2.98474
H          3.81352        8.38943       -4.06762
H          3.09086        7.30725       -5.31321
C          1.97308        9.12323       -4.90554
H          0.55248        5.83844       -2.92100
H          1.00500        8.75643       -5.30702
H          1.78221        9.82359       -4.06517
H          2.49191        9.68560       -5.70823
C         -1.63967        0.39943        1.43110
C         -2.08267       -0.90825        1.40375
C         -1.03524       -1.64464        0.91540
C         -0.02314       -0.75258        0.64809
N         -0.38447        0.50318        0.94552
C          1.33355       -1.13845        0.17650
N          2.24500        0.03300       -0.00400
C          3.40709       -0.11480        0.97612
H         -3.04658       -1.28365        1.73093
H         -2.24547        1.20352        1.81176
H         -1.01590       -2.72373        0.78774
H          1.31158       -1.75890       -0.73346
H          1.63566       -1.79971        1.01142
C          4.17757       -1.47064        0.88765
C          4.46416        0.91852        0.65782
C          2.95851        0.12349        2.44727
H          4.55796       -1.64899       -0.13883
H          5.05380       -1.45173        1.57797
H          3.60326       -2.35806        1.20980
H          3.98482        1.85156        0.81901
H          5.33480        0.87484        1.35057
H          4.83868        0.83109       -0.37981
H          2.36698        1.05761        2.53884
H          2.35298       -0.70927        2.85332
H          3.84553        0.22567        3.11567
Mg         0.04543        5.27903       -2.29672
C         -2.04467        3.78994       -0.90186
C         -2.45175        3.29727        0.31657
C         -1.44784        3.58662        1.21836
C         -0.47320        4.24761        0.50525
N         -0.84286        4.38312       -0.78669
C          0.81720        4.74618        1.06721
N          1.89483        4.05919        0.36679
C          3.28351        4.52176        0.66029
H         -3.37792        2.76953        0.51824
H         -2.60306        3.72417       -1.82329
H         -1.42044        3.33363        2.26988
H          0.87708        4.52436        2.15484
H          0.84954        5.83722        0.88986
C          3.73830        4.08199        2.08713
C          4.18721        3.99810       -0.48285
C          3.44319        6.05449        0.60243
H          3.52177        3.04179        2.36601
H          4.82912        4.26037        2.22355
H          3.20968        4.67390        2.86240
H          3.98428        4.54781       -1.42380
H          5.26825        4.11469       -0.24225
H          3.95763        2.97639       -0.79959
H          3.10859        6.43956       -0.38277
H          2.86936        6.55860        1.40374
H          4.51295        6.32910        0.74509
