96
speciation1748.ct
Na         1.06759        0.06182        0.04013
Mg         2.43464        3.56089        2.60782
C          5.53238        4.12686        2.67357
C          4.57542        5.47970        1.14527
O          4.32424        4.28255        1.89657
C          5.54360        2.95255        3.62334
C          3.47947        5.87664        0.18799
H          6.39581        3.93054        1.99234
H          5.75840        5.02955        3.29670
H          4.78835        6.36374        1.79632
H          5.46222        5.31161        0.47586
H          2.58594        6.20475        0.74953
H          3.84658        6.73762       -0.41743
H          3.24740        5.03962       -0.50014
H          5.39900        2.01554        3.08925
H          6.53338        2.89401        4.12814
H          4.78058        3.08470        4.38603
H         -2.47917        1.13292        4.27537
C         -4.12851        2.18403        3.36330
C         -2.64810        1.81360        3.41502
C         -4.44485        3.12219        2.19477
H         -4.72454        1.25188        3.26091
H         -4.40413        2.68048        4.32028
H         -3.85110        4.05783        2.28847
H         -4.18113        2.62500        1.23618
C         -5.93086        3.48254        2.17829
H         -2.02907        2.72565        3.55741
H         -6.55102        2.56599        2.07772
H         -6.21264        4.00728        3.11681
H         -6.14775        4.15298        1.32039
C          0.16673        4.47926        1.06842
C         -0.92264        4.65777        0.27726
C         -1.16779        3.48412       -0.32175
C         -0.24276        2.54987        0.11511
N          0.64511        3.20487        1.07681
C         -0.50530        1.13383       -0.68652
N         -1.30241        0.06182        0.04013
C         -1.53922       -1.36513       -0.20483
H         -1.46279        5.57505        0.14544
H          0.58867        5.23347        1.64399
H         -1.95548        3.33086       -1.04231
H          0.23441        0.82585       -1.46935
H         -1.20625        1.37586       -1.50487
C         -0.41353       -2.20963        0.41641
C         -2.84383       -1.72554        0.53314
C         -1.69762       -1.66666       -1.69636
H         -0.27990       -1.95991        1.49254
H         -0.63969       -3.29473        0.33467
H          0.53663       -2.03456       -0.10192
H         -3.69013       -1.11139        0.15894
H         -3.09771       -2.79974        0.40220
H         -2.74027       -1.52900        1.62481
H         -2.53944       -1.07536       -2.11561
H         -0.76846       -1.42010       -2.24879
H         -1.92232       -2.74664       -1.84266
Mg        -1.94450        0.83860        1.72671
C          1.32029        5.85695        4.45716
C          2.82273        4.54586        5.70666
O          2.00563        4.60801        4.49324
C          2.17638        7.12705        4.61808
C          2.02475        4.59297        7.03721
H          0.83974        5.94607        3.49309
H          0.47214        5.85754        5.17697
H          3.35620        3.58811        5.77469
H          3.61554        5.32416        5.71968
H          1.34725        3.71966        7.12689
H          2.72479        4.56408        7.90548
H          1.43237        5.52358        7.16255
H          3.03338        7.10795        3.91360
H          1.54898        8.01697        4.40223
H          2.54898        7.25371        5.65849
C          2.20405        1.48208        4.43183
C          2.47184        0.17827        4.68352
C          3.09750       -0.31023        3.56510
C          3.19631        0.73974        2.62068
N          2.65635        1.82080        3.21415
C          3.86750        0.88538        1.21233
N          3.43759        0.06182        0.04013
C          4.05433       -1.31511       -0.01632
H          2.24324       -0.35715        5.59867
H          1.71351        2.15380        5.12093
H          3.40325       -1.33059        3.59583
H          4.95772        0.83077        1.32902
H          3.68284        1.93827        0.91091
C          3.74918       -2.14909        1.22715
C          3.48744       -2.08160       -1.21803
C          5.60003       -1.27396       -0.17111
H          2.67279       -2.08384        1.50432
H          4.01177       -3.22002        1.10602
H          4.45009       -1.81517        2.00741
H          3.75621       -1.58283       -2.16743
H          3.90412       -3.11682       -1.23886
H          2.39201       -2.17210       -1.15511
H          5.89808       -0.74096       -1.09302
H          6.10794       -0.80012        0.69410
H          6.00736       -2.30955       -0.20253
