95
speciation1837.ct
Na         6.70387        4.06029        1.99207
Mg         1.49935        1.71199       -1.38806
C          0.45877       -0.35856        0.65992
C         -0.81265        1.53965        0.75165
O          0.23290        0.89924        0.02119
C          1.67303       -1.06409        0.12671
C         -1.13102        2.93295        0.26008
H          0.63587       -0.24508        1.75671
H         -0.41183       -1.03395        0.49696
H         -1.75348        0.94487        0.66217
H         -0.54499        1.64563        1.83204
H         -1.46114        2.90493       -0.79570
H         -1.95957        3.33915        0.88589
H         -0.24999        3.58708        0.38066
H          2.57067       -0.44241        0.30944
H          1.80128       -2.03480        0.65697
H          1.51495       -1.26414       -0.94488
H          4.94843        2.64536       -4.92697
C          6.31394        3.24538       -3.41494
C          4.87293        3.11742       -3.93318
C          7.15980        4.07443       -4.39967
H          6.32025        3.73058       -2.42159
H          6.76365        2.23548       -3.30121
H          7.20498        3.55054       -5.37990
H          6.68990        5.07056       -4.55321
C          8.58257        4.29472       -3.89348
H          4.44822        4.13065       -4.07490
H          8.56679        4.86820       -2.94229
H          9.09546        3.32381       -3.73167
H          9.15605        4.87901       -4.64562
C          4.37766        3.03269        3.70593
C          3.15997        2.39250        3.73066
C          2.87519        2.03566        2.42393
C          3.93183        2.48154        1.64321
N          4.85729        3.08760        2.44475
C          4.10717        2.36116        0.11540
N          3.08896        3.04789       -0.75577
C          3.05166        4.59050       -0.47565
H          2.53807        2.20888        4.59883
H          4.87790        3.45310        4.56961
H          1.99872        1.53872        2.08098
H          5.12157        2.72291       -0.15374
H          4.10928        1.28391       -0.12694
C          4.42952        5.24472       -0.75229
C          2.05741        5.41511       -1.31715
C          2.62215        4.99799        0.96964
H          4.72398        5.06767       -1.80196
H          4.38466        6.34939       -0.62002
H          5.22200        4.88875       -0.06775
H          1.01545        5.08400       -1.14665
H          2.03267        6.48391       -1.01542
H          2.40013        5.55196       -2.34929
H          1.63625        4.57677        1.24285
H          3.35974        4.81022        1.74911
H          2.53891        6.10739        1.06017
Na        -0.81326       -1.28030       -6.91512
Mg         3.41784        2.02344       -2.73909
H          4.52628       -0.20436       -3.97901
C          3.98583       -1.31370       -2.25111
C          4.49686       -0.01563       -2.88801
C          4.70755       -2.59942       -2.69324
H          4.06279       -1.20752       -1.15854
H          2.94760       -1.47697       -2.53308
H          4.61114       -2.74266       -3.79468
H          5.78438       -2.55068       -2.43304
C          4.06950       -3.80922       -1.99663
H          5.55078        0.12471       -2.57288
H          4.15205       -3.70071       -0.89411
H          2.99153       -3.89073       -2.26298
H          4.57292       -4.75035       -2.30077
C          1.91225       -0.26093       -7.84195
C          3.10154        0.32921       -7.49518
C          3.04053        0.55168       -6.13655
C          1.79862        0.11892       -5.71039
N          1.11973       -0.39526       -6.76024
C          1.24197        0.26451       -4.29621
N          1.51236        1.58261       -3.63257
C          0.83672        2.71426       -4.35427
H          3.91787        0.59654       -8.15874
H          1.63755       -0.56968       -8.84573
H          3.79019        1.02995       -5.56329
H          1.62532       -0.53829       -3.68596
H          0.15543        0.04310       -4.32091
C         -0.70095        2.57115       -4.42781
C          1.14665        3.88403       -3.54522
C          1.37723        3.03255       -5.78150
H         -1.13083        2.39551       -3.41965
H         -1.14793        3.50527       -4.83883
H         -1.00686        1.75113       -5.10686
H          2.25420        3.90740       -3.50110
H          0.75364        4.83496       -3.96882
H          0.69776        3.66867       -2.56286
H          2.48207        3.15251       -5.78521
H          1.06259        2.29675       -6.54099
H          0.94859        3.98700       -6.15866
