96
speciation1010.ct
Na         1.05564        0.18441        0.19478
Mg        -2.23003        0.92968       -1.37262
C          3.73765        1.81277        1.90499
C          1.69729        2.85875        2.21306
O          2.37404        1.84030        1.44310
C          4.59326        0.71283        1.31671
C          2.35368        4.28278        2.22364
H          4.27212        2.74738        1.58358
H          3.79901        1.72226        3.02887
H          0.68399        2.99825        1.80130
H          1.57886        2.53720        3.27441
H          2.49770        4.68358        1.20041
H          1.72261        5.00787        2.79228
H          3.33700        4.31412        2.75579
H          4.60084        0.80859        0.21436
H          5.63337        0.87389        1.68797
H          4.23961       -0.27443        1.66477
H         -4.77574        1.63816       -1.36365
C         -4.51847        0.36923        0.38857
C         -4.23569        0.71430       -1.06837
C         -3.81448       -0.93719        0.77643
H         -4.15912        1.19884        1.03429
H         -5.61655        0.25551        0.52319
H         -4.16572       -1.76181        0.11745
H         -2.71590       -0.82233        0.64762
C         -4.10948       -1.31846        2.22463
H         -4.58654       -0.11466       -1.71952
H         -3.75716       -0.52292        2.91454
H         -5.20092       -1.47068        2.36869
H         -3.58472       -2.26509        2.47436
C         -1.63728        4.91132       -3.51979
C         -2.74378        4.42853       -2.83135
C         -2.26798        3.50804       -1.92781
C         -0.90631        3.45495       -2.10620
N         -0.51802        4.30726       -3.07891
C          0.01730        2.55265       -1.37360
N         -0.27354        1.13979       -1.66942
C         -0.09026        0.74469       -3.13594
H         -3.76998        4.72647       -2.96114
H         -1.65877        5.67736       -4.27698
H         -2.84364        2.94978       -1.21197
H         -0.11732        2.73251       -0.29297
H          1.07045        2.78452       -1.60551
C          1.33954        1.00809       -3.64214
C         -0.40819       -0.74713       -3.30459
C         -1.05888        1.43821       -4.15456
H          2.09286        0.47128       -3.03156
H          1.45178        0.69316       -4.70446
H          1.54018        2.09563       -3.63952
H         -1.46494       -0.95395       -3.03539
H         -0.26414       -1.05446       -4.36868
H          0.26177       -1.35927       -2.69800
H         -2.12017        1.38027       -3.83572
H         -0.78569        2.46547       -4.40670
H         -0.98235        0.97343       -5.16258
Mg         1.36755        4.68537       -3.59053
C          1.01727       -3.09011       -0.50150
C          0.44690       -2.95670        1.73013
O          0.74324       -2.17548        0.56814
C         -0.21117       -3.93256       -0.95084
C          0.31111       -2.13156        2.98978
H          1.39329       -2.53635       -1.38145
H          1.84971       -3.78461       -0.25430
H         -0.53898       -3.47090        1.61996
H          1.24770       -3.71226        1.93041
H         -0.52005       -1.41053        2.88039
H          0.07095       -2.80842        3.84495
H          1.25948       -1.61331        3.21787
H         -1.07796       -3.28302       -1.19833
H          0.03301       -4.55657       -1.83491
H         -0.53417       -4.66108       -0.16937
C          1.92222        8.90720       -6.49561
C          0.98684        8.74251       -5.48143
C          1.48307        7.73756       -4.62714
C          2.63941        7.34751       -5.11923
N          2.98569        8.01506       -6.30905
C          3.60572        6.48858       -4.39106
N          3.25313        5.06348       -4.10215
C          4.39322        4.39978       -3.36729
H          0.09169        9.31555       -5.37257
H          1.86450        9.62546       -7.30177
H          1.03024        7.44837       -3.69863
H          3.69368        7.08533       -3.47668
H          4.55627        6.54933       -4.95013
C          4.80692        5.18073       -2.06767
C          4.02698        2.96268       -2.93784
C          5.61507        4.21972       -4.31209
H          4.13360        4.93388       -1.21855
H          4.81129        6.27518       -2.09159
H          5.87380        5.00253       -1.82912
H          3.79481        2.32278       -3.81481
H          4.88200        2.48319       -2.40694
H          3.18062        2.95577       -2.22885
H          5.31684        3.64423       -5.21794
H          6.09102        5.16267       -4.62883
H          6.41487        3.63574       -3.80356
