95
speciation1416.ct
Na         4.42534       -3.28672        1.45630
Mg        -0.93137        4.98557        0.86868
C          3.51891       -3.48194        4.35864
C          2.65541       -5.15452        2.90042
O          3.80146       -4.41066        3.30861
C          3.27129       -4.10022        5.75461
C          2.31954       -6.38571        3.77097
H          4.44450       -2.88596        4.48219
H          2.69988       -2.77719        4.09815
H          1.76052       -4.50996        2.76221
H          2.90679       -5.57444        1.90538
H          1.89431       -6.14648        4.75545
H          1.52420       -6.97953        3.27278
H          3.20683       -7.03436        3.92138
H          4.00808       -4.90014        5.98811
H          3.35054       -3.31800        6.53703
H          2.23788       -4.47730        5.87081
H         -1.87969        4.75589        3.28998
C         -3.49699        3.76661        2.24107
C         -2.39656        4.83410        2.31139
C         -4.15209        3.66572        0.85805
H         -3.03117        2.78240        2.46498
H         -4.25659        3.98101        3.02248
H         -3.34988        3.42803        0.12577
H         -4.87202        2.81592        0.84838
C         -4.93242        4.92027        0.44347
H         -2.82372        5.85215        2.23809
H         -5.94729        4.88443        0.88508
H         -5.03698        4.94380       -0.66388
H         -4.46586        5.86735        0.77922
C          2.75327       -0.36048       -4.08061
C          2.58152       -1.75120       -4.19679
C          2.84202       -2.26537       -2.95737
C          3.16681       -1.20073       -2.14394
N          3.11593       -0.04279       -2.82256
C          3.57235       -1.27639       -0.71807
N          4.78975       -2.06707       -0.53463
C          6.05195       -1.50010       -1.15702
H          2.29683       -2.26934       -5.08919
H          2.61783        0.35926       -4.87282
H          2.81247       -3.31638       -2.68051
H          2.74166       -1.73697       -0.13868
H          3.75181       -0.25415       -0.35947
C          6.46420       -0.15720       -0.50983
C          7.15712       -2.54047       -0.97536
C          5.98903       -1.24571       -2.69800
H          6.60532       -0.25468        0.58213
H          7.40573        0.22204       -0.96410
H          5.70061        0.63026       -0.70334
H          6.87786       -3.46603       -1.52881
H          8.11674       -2.16771       -1.39971
H          7.29755       -2.77946        0.09148
H          5.61255       -2.12510       -3.25764
H          5.41422       -0.34074       -2.96200
H          6.99344       -0.99655       -3.10478
Na         3.48726        2.15663       -2.02159
Mg         1.27769        7.22497        0.15728
H          2.36140        9.17523        1.56596
C          0.78378       10.11593        0.37487
C          1.92398        9.12035        0.54645
C         -0.37451        9.81680        1.32733
H          1.17053       11.14202        0.55956
H          0.42110       10.05349       -0.67429
H         -0.76024        8.79172        1.13598
H         -0.01947        9.87672        2.37882
C         -1.50953       10.81998        1.12819
H          2.71287        9.36188       -0.19724
H         -1.15178       11.85313        1.32754
H         -1.89617       10.76553        0.08764
H         -2.34032       10.59082        1.82790
C          4.94093        5.11764       -1.47108
C          4.84910        6.30451       -0.77800
C          3.66501        6.24677       -0.07140
C          3.07811        5.04162       -0.38031
N          3.85860        4.35605       -1.22062
C          1.77889        4.50853        0.13099
N          0.64723        5.37606       -0.22236
C          0.19961        5.52364       -1.63555
H          5.56872        7.11074       -0.77746
H          5.75669        4.81740       -2.11456
H          3.29324        7.00121        0.59508
H          1.60857        3.47159       -0.21941
H          1.85554        4.47169        1.23733
C          0.01514        4.16192       -2.35351
C         -1.16436        6.24675       -1.58943
C          1.14441        6.45231       -2.44171
H         -0.89132        4.15716       -2.99864
H          0.87950        3.93533       -3.01504
H         -0.11468        3.33041       -1.63428
H         -1.07071        7.24209       -1.10191
H         -1.55194        6.41694       -2.62075
H         -1.91739        5.64915       -1.03645
H          1.28039        7.42661       -1.92296
H          2.14224        6.00383       -2.60203
H          0.72344        6.67232       -3.44673
