95
speciation1847.ct
Na         5.74126       -2.05420        0.97516
Mg         2.12990        2.65500        3.13106
C          1.73277        4.70978        0.91491
C          0.79609        2.53107        0.83030
O          1.86866        3.34091        1.32083
C          0.37017        5.39873        1.10486
C          0.90406        2.22174       -0.66187
H          2.44284        5.32564        1.47942
H          2.04442        4.79913       -0.14798
H          0.82298        1.55626        1.34859
H         -0.20515        2.92317        1.09306
H          1.86222        1.70605       -0.87801
H          0.06670        1.55184       -0.95843
H          0.82990        3.14673       -1.26729
H          0.07492        5.39570        2.16900
H          0.46153        6.45782        0.78318
H         -0.42863        4.95448        0.47577
H          4.50031       -0.65420        7.51696
C          6.28884       -0.43805        6.33386
C          4.74922       -0.32026        6.48598
C          7.05086        0.46563        7.31357
H          6.60279       -1.49299        6.52554
H          6.57513       -0.18857        5.29048
H          6.74802        1.51021        7.14557
H          6.80412        0.18711        8.36127
C          8.56988        0.38093        7.12692
H          4.31039       -1.07516        5.79612
H          8.94805       -0.63628        7.36463
H          8.85243        0.63909        6.08375
H          9.06696        1.10582        7.80822
C          1.90630       -0.15387        3.66421
C          2.35917       -1.42906        3.42901
C          3.30955       -1.33198        2.44738
C          3.39647       -0.00199        2.09580
N          2.53588        0.73143        2.86185
C          4.38144        0.52669        1.04184
N          4.65401       -0.48551        0.00273
C          5.60344       -0.12434       -1.08224
H          2.04296       -2.32666        3.93564
H          1.16198        0.13221        4.39215
H          3.87382       -2.16136        2.04857
H          5.35109        0.74173        1.54269
H          3.96638        1.45109        0.59562
C          6.97480        0.33938       -0.53247
C          5.82269       -1.40508       -1.90228
C          5.03700        0.96733       -2.02270
H          7.39790       -0.41804        0.16156
H          7.69992        0.47417       -1.36909
H          6.90209        1.31438       -0.00722
H          4.85333       -1.78524       -2.28991
H          6.50134       -1.22741       -2.76173
H          6.27137       -2.20429       -1.27277
H          4.14516        0.59251       -2.56329
H          4.76326        1.88761       -1.47334
H          5.80247        1.24582       -2.78249
Na         2.75334       -1.01599       -0.79168
Mg         3.51750        1.58529        6.11261
H          1.00488        1.69200        7.15401
C          1.74270        0.64361        8.87513
C          1.74530        0.88715        7.34532
C          2.15696        1.88923        9.66703
H          0.70870        0.37240        9.19758
H          2.40468       -0.20688        9.14464
H          1.47126        2.73292        9.43104
H          2.07521        1.68275       10.75945
C          3.59436        2.27997        9.35113
H          1.35233       -0.03593        6.86726
H          4.27805        1.45087        9.63246
H          3.70408        2.48991        8.26816
H          3.87080        3.19050        9.92025
C         -0.70450        3.66405        3.99599
C         -1.04897        4.56488        4.99237
C          0.10734        4.86702        5.67852
C          1.10846        4.14589        5.07066
N          0.62692        3.43168        4.03778
C          2.56266        4.16831        5.45560
N          3.33957        3.18401        4.66794
C          4.69858        3.63404        4.28327
H         -2.02550        4.99049        5.18149
H         -1.37585        3.27943        3.24120
H          0.21986        5.55325        6.50868
H          2.65390        3.89454        6.52770
H          2.91310        5.20938        5.35383
C          5.56076        3.90598        5.52074
C          5.31160        2.52386        3.46051
C          4.67959        4.89250        3.38100
H          5.55445        3.02100        6.17694
H          6.60681        4.13542        5.21839
H          5.17334        4.77176        6.09629
H          4.66307        2.45353        2.57599
H          6.33873        2.77205        3.11863
H          5.31510        1.55883        4.00626
H          4.12296        4.66891        2.46305
H          4.24660        5.79426        3.85420
H          5.70879        5.16664        3.06780
