96
speciation1603.ct
Na         2.04749        0.28888        0.58423
Mg         2.84144        2.29199       -1.54927
C          5.22855        3.51229       -1.34532
C          5.92327        1.55786       -2.49252
O          4.85189        2.23066       -1.80236
C          5.82236        4.44564       -2.41616
C          6.90803        0.92765       -1.53073
H          4.28824        3.99911       -1.02856
H          5.87413        3.44371       -0.44530
H          5.57210        0.77508       -3.15595
H          6.43893        2.18023       -3.24579
H          6.44091        0.16782       -0.88943
H          7.71994        0.39945       -2.13222
H          7.43831        1.68880       -0.91951
H          5.19643        4.40697       -3.33490
H          5.88557        5.47265       -2.03567
H          6.86413        4.13990       -2.66842
H          2.63589        3.98968       -3.70067
C          0.61443        3.18673       -3.86627
C          2.11580        3.02722       -3.54954
C          0.15990        4.56593       -3.41105
H          0.44734        3.13695       -4.96747
H          0.00828        2.36061       -3.44124
H          0.36047        4.69403       -2.32846
H          0.75460        5.31069       -3.98545
C         -1.30925        4.82407       -3.70190
H          2.52937        2.44668       -4.38873
H         -1.52601        4.68554       -4.78348
H         -1.94590        4.14155       -3.10265
H         -1.53787        5.87517       -3.42722
C         -1.98237       -0.74880        0.60888
C         -2.78041        0.33576        0.87887
C         -2.05971        1.44879        0.53354
C         -0.82764        1.00121        0.07286
N         -0.78484       -0.36599        0.10382
C          0.19084        1.97153       -0.53301
N          1.49996        2.16539        0.13056
C          1.54553        3.12060        1.29445
H         -3.79485        0.31480        1.26809
H         -2.28166       -1.76607        0.75698
H         -2.40318        2.46861        0.59036
H         -0.28662        2.95131       -0.71000
H          0.40321        1.54890       -1.52079
C          0.57683        2.73615        2.44255
C          2.96428        3.09638        1.89406
C          1.22434        4.56821        0.85781
H          0.80235        1.74400        2.86966
H          0.67008        3.47760        3.28035
H         -0.48473        2.78517        2.14037
H          3.72287        3.40972        1.15904
H          3.03454        3.79078        2.76839
H          3.21642        2.07908        2.26665
H          1.90012        4.88311        0.03940
H          0.17233        4.67492        0.52342
H          1.35071        5.27560        1.70975
Mg         0.41624       -1.95744       -0.43412
C          0.52580       -3.59223       -2.78689
C         -0.99705       -4.57782       -1.34159
O          0.04970       -3.62488       -1.45186
C         -0.45112       -2.89920       -3.74452
C         -1.46688       -4.75639        0.08638
H          1.48106       -3.06562       -2.77841
H          0.82701       -4.59428       -3.16543
H         -1.87922       -4.29222       -1.95412
H         -0.61790       -5.57659       -1.66096
H         -1.98010       -3.84839        0.43306
H         -2.19992       -5.59188        0.11598
H         -0.61719       -4.99455        0.75534
H         -0.87950       -1.98526       -3.28500
H          0.07374       -2.62389       -4.68274
H         -1.28814       -3.57786       -4.00127
C          3.10692        0.07716       -4.16748
C          1.76086        0.01969       -3.91120
C          1.59784       -0.60083       -2.68141
C          2.80809       -0.93207       -2.22693
N          3.79110       -0.54556       -3.13298
C          3.20286       -1.75375       -1.04513
N          2.30719       -1.65638        0.10836
C          2.76882       -2.41602        1.29333
H          0.98992        0.40659       -4.56713
H          3.59428        0.52979       -5.02205
H          0.65653       -0.82574       -2.21502
H          4.21867       -1.40516       -0.78406
H          3.26666       -2.79434       -1.40472
C          4.21371       -2.03232        1.71832
C          1.83077       -2.07346        2.46073
C          2.70443       -3.92674        1.00541
H          4.29944       -0.93544        1.87933
H          4.49489       -2.55000        2.65928
H          4.97166       -2.34366        0.96943
H          0.77905       -2.31879        2.20494
H          2.11962       -2.64089        3.37280
H          1.89133       -0.98873        2.69967
H          1.68810       -4.20687        0.66544
H          3.42925       -4.21801        0.21750
H          2.96167       -4.51307        1.90939
