68
speciation143.ct
Na         2.52885       -0.02928        0.83951
Mg         0.62826        1.86522       -0.57550
C          0.30526        4.92532       -0.36999
C         -0.60806        3.80646       -2.20735
O          0.34057        3.73757       -1.17001
C          0.91238        6.13828       -1.10896
C         -0.72527        2.44449       -2.85695
H         -0.72359        5.16963       -0.02261
H          0.90215        4.77505        0.54977
H         -1.61448        4.10867       -1.83719
H         -0.24762        4.49839       -2.99809
H         -1.10935        1.70900       -2.13269
H         -1.42393        2.50062       -3.71367
H          0.26912        2.11216       -3.21100
H          0.31114        6.41544       -2.00044
H          0.93153        7.03117       -0.44753
H          1.95072        5.92500       -1.43667
C          5.35695        1.07593        2.41693
C          5.86123        2.35725        2.45408
C          4.96996        3.15029        1.75951
C          3.98047        2.29448        1.34545
N          4.20743        1.03957        1.69872
C          2.78995        2.63299        0.54487
N          2.62022        1.69229       -0.56437
C          3.56429        1.90945       -1.75920
H          6.77487        2.70596        2.91655
H          5.83301        0.20419        2.86111
H          5.02786        4.21488        1.57186
H          2.76973        3.68670        0.24114
H          1.92259        2.46195        1.21920
C          5.06340        1.70859       -1.38871
C          3.31298        0.94831       -2.95520
C          3.37374        3.30196       -2.38195
H          5.27715        0.69513       -0.99525
H          5.70964        1.83363       -2.28436
H          5.43444        2.45855       -0.67758
H          2.32567        1.09404       -3.43270
H          4.07550        1.09670       -3.75362
H          3.44197       -0.09122       -2.71538
H          2.35054        3.39481       -2.80237
H          3.55528        4.12190       -1.67163
H          4.08959        3.44432       -3.22206
Na         2.40002       -3.47167        1.41259
C         -2.01265        0.95766        0.21887
C         -2.94759        0.02507        0.58278
C         -2.27532       -1.15484        0.72486
C         -0.94355       -0.90289        0.44150
N         -0.76964        0.41254        0.08891
C          0.02367       -2.09058        0.55095
N          1.46653       -1.86504        0.34677
C          1.95358       -1.99251       -1.03643
H         -4.01105        0.17288        0.73239
H         -2.23243        1.99877        0.02223
H         -2.71543       -2.10511        1.00905
H         -0.09261       -2.49090        1.57350
H         -0.34445       -2.89900       -0.11538
C          1.15544       -1.00501       -1.92909
C          3.48302       -1.76105       -0.95206
C          1.81052       -3.39430       -1.65512
H          1.18813        0.01542       -1.51741
H          1.47211       -1.00742       -2.98535
H          0.08101       -1.28156       -1.96313
H          3.93701       -2.46238       -0.21951
H          4.00916       -1.93878       -1.91040
H          3.74774       -0.75962       -0.60259
H          2.37881       -4.14714       -1.07187
H          0.76271       -3.71979       -1.78005
H          2.25184       -3.36157       -2.68045
