96
speciation1766.ct
Na         1.44294       -0.40310       -1.07550
Mg         2.36284       -0.14403        1.47281
C          5.09994       -0.67033        1.21479
C          5.37518       -1.22697        3.22025
O          4.46304       -0.48970        2.42023
C          5.24873       -2.25288        0.59547
C          5.08343       -1.23095        4.64924
H          4.52576        0.20493        0.94990
H          6.08382       -0.16256        1.17030
H          5.37550       -2.29705        2.95700
H          6.42982       -0.83617        3.10172
H          4.17402       -1.84622        4.77713
H          5.97165       -1.72227        5.09181
H          4.99243       -0.20842        5.04600
H          4.39985       -2.67986        0.10746
H          5.27701       -2.76059       -0.39382
H          5.79252       -3.04543        1.10292
H          3.48158        1.86282       -4.00155
C          4.04202       -0.20594       -4.23133
C          4.02573        1.14590       -3.35247
C          4.93647       -0.31225       -5.46687
H          4.40925       -1.09611       -3.72874
H          3.00192       -0.50357       -4.48860
H          5.10154       -1.40434       -5.69198
H          4.42221        0.13331       -6.33082
C          6.28824        0.35988       -5.26075
H          5.02388        1.60489       -3.24671
H          6.09831        1.43971       -5.13106
H          6.82524       -0.05193       -4.37619
H          6.93022        0.26244       -6.15821
C          5.52067        0.92292       -1.00201
C          6.58085        0.05963       -1.25803
C          6.01308       -1.07368       -1.71848
C          4.61751       -0.83358       -1.54785
N          4.32338        0.19667       -1.12643
C          3.21766       -1.57316       -1.51346
N          2.37716       -1.54201       -0.11815
C          2.01065       -2.84591        0.58444
H          7.65762        0.16248       -1.08228
H          5.73060        1.91130       -0.61157
H          6.51813       -1.98824       -1.95908
H          2.73938       -2.06560       -2.38088
H          2.77266       -0.83988       -2.24491
C          2.96819       -3.07738        1.73059
C          0.82724       -3.06259        1.61545
C          1.91286       -3.87075       -0.52026
H          2.95775       -2.45681        2.65401
H          3.71004       -3.88676        1.67382
H          3.26169       -2.08389        1.84159
H         -0.18336       -3.18462        1.22440
H          0.93283       -4.05290        2.14505
H          0.84924       -2.34489        2.49806
H          1.03251       -3.59241       -1.15876
H          2.62355       -3.74851       -1.31881
H          2.53935       -4.73588       -0.29876
Mg         2.88590        1.21480       -1.66202
C         -0.65589        0.19469        2.94286
C          0.97445        0.84421        4.26503
O          0.76557        0.12382        3.05293
C         -1.12828       -0.80657        2.03099
C          2.39048        0.73506        4.67145
H         -1.18664       -0.15742        3.84383
H         -1.05035        1.24370        2.75205
H          0.59773        1.90236        4.26369
H          0.38921        0.39003        5.09154
H          3.05293        1.35156        4.04623
H          2.45792        1.06230        5.72346
H          2.63501       -0.32937        4.54920
H         -0.43111       -1.19224        1.32098
H         -2.20665       -1.05099        2.01429
H         -1.07674       -0.08713        1.32680
C         -1.87467       -0.99421       -0.74332
C         -2.81392       -0.02004       -0.37267
C         -2.12830        1.18009       -0.37968
C         -0.81377        0.85196       -0.70840
N         -0.64460       -0.41481       -0.90136
C          0.42985        1.67262       -0.74977
N          1.77400        1.28200       -0.01300
C          2.10138        2.64417        0.64107
H         -3.83142       -0.16378       -0.00513
H         -2.06348       -2.06156       -0.66021
H         -2.50517        2.14797       -0.06678
H         -0.07343        2.58941       -0.41500
H          0.65876        1.81956       -1.82112
C          1.10535        2.96679        1.77358
C          3.48741        2.71532        1.31402
C          2.08453        3.85352       -0.35379
H          1.46722        2.36980        2.56045
H          1.15518        4.00501        2.16153
H          0.03941        2.73526        1.61272
H          4.30243        2.68131        0.59948
H          3.58486        3.68647        1.85992
H          3.61359        1.93074        2.07077
H          2.86596        3.71792       -1.12097
H          1.14705        4.06334       -0.89415
H          2.23786        4.79708        0.21278
