95
speciation1252.ct
Na         2.41342        0.41450       -0.85453
Mg         2.44047        1.61962       -2.11318
C          0.17109       -2.17312        0.00873
C         -0.31743       -1.70695       -2.19066
O          0.50044       -1.28217       -1.07706
C          0.73485       -3.58857       -0.17051
C         -0.68641       -0.59397       -3.14519
H          0.53779       -1.75940        0.93564
H         -0.92946       -2.25534        0.20992
H          0.19213       -2.53047       -2.73407
H         -1.32754       -2.09102       -1.88153
H          0.20762       -0.10291       -3.52416
H         -1.24861       -1.04057       -4.00003
H         -1.32085        0.16230       -2.64805
H          1.78918       -3.52965       -0.40638
H          0.63331       -4.18528        0.75979
H          0.23600       -4.13677       -0.99644
H          0.72393        1.39026       -0.72653
C          1.86881        0.46623        1.34932
C          0.75471        1.07306        0.34236
C          1.70138        0.30014        2.88632
H          2.26349       -0.50166        0.98835
H          2.72396        1.14177        1.29963
H          2.73228        0.13752        3.28464
H          1.31140        1.19101        3.40677
C          0.91804       -0.91133        3.34390
H         -0.19092        0.50733        0.41076
H         -0.14736       -0.81415        3.06094
H          1.37427       -1.83277        2.92513
H          1.00373       -0.98922        4.44951
C          5.32875        3.45287       -2.33100
C          6.17793        4.24341       -1.58476
C          5.56285        4.42228       -0.38791
C          4.34832        3.74211       -0.47294
N          4.19537        3.07337       -1.64328
C          3.40647        3.66175        0.65800
N          2.09909        3.14259        0.23907
C          1.09850        4.29154        0.17404
H          7.15140        4.61607       -1.87221
H          5.61962        3.14574       -3.30854
H          5.95588        4.97152        0.46123
H          3.88361        3.04964        1.45909
H          3.45608        4.66522        1.06331
C          1.30081        5.08142       -1.12348
C         -0.36486        3.77910        0.17082
C          1.09606        5.29341        1.42043
H          1.01611        4.43487       -1.96993
H          0.62453        5.96374       -1.15177
H          2.34191        5.43661       -1.24442
H         -0.59454        3.22353        1.10801
H         -1.07458        4.63402        0.13576
H         -0.59709        3.14413       -0.69944
H          0.63339        4.83941        2.32129
H          2.02537        5.76310        1.78670
H          0.46871        6.17736        1.18870
Na         1.45820        2.85961        2.24470
Mg         4.52458       -1.35427        1.19179
H          1.20268        2.61149       -4.55101
C          3.24994        2.88884       -5.20512
C          2.16318        2.88407       -4.07380
C          3.02385        3.87593       -6.38392
H          4.24296        3.13560       -4.81562
H          3.31545        1.86750       -5.63280
H          3.80758        3.68684       -7.15594
H          2.03781        3.69363       -6.85624
C          3.15689        5.35720       -6.00683
H          2.11246        3.91979       -3.70048
H          2.39562        5.65457       -5.26109
H          4.17265        5.57252       -5.60731
H          3.01610        5.98570       -6.91584
C          2.37103       -0.86334       -4.38518
C          2.64961       -2.18561       -4.71779
C          3.25947       -2.73656       -3.62922
C          3.34483       -1.74221       -2.70315
N          2.75700       -0.55903       -3.10085
C          4.09152       -2.02853       -1.44737
N          4.28403       -0.84061       -0.67380
C          5.43257        0.00228       -1.09245
H          2.45400       -2.70199       -5.65658
H          1.89212       -0.17804       -5.05973
H          3.64227       -3.75691       -3.54860
H          5.05543       -2.51706       -1.66633
H          3.58890       -2.77272       -0.81758
C          5.24442        0.55015       -2.53372
C          5.47132        1.06168       -0.02894
C          6.81013       -0.66676       -1.07895
H          4.81081        1.22238       -3.29282
H          5.33582       -0.31030       -3.22743
H          4.23292        0.85905       -2.30209
H          5.67233        0.63847        0.97487
H          6.22074        1.83814       -0.25569
H          4.44628        1.41905        0.04666
H          7.06959       -1.02638       -0.06528
H          6.90092       -1.48458       -1.81745
H          7.55801        0.10237       -1.38625
