110
speciation2184.ct
Na         1.08900        0.02779       -0.03614
Mg         6.40770        2.63276       -4.61842
C         -1.71810        1.28696        0.39472
C         -1.82270       -1.05164        0.66015
O         -1.23100        0.02779       -0.03614
C         -1.39509        1.62637        1.85592
C         -1.22439       -2.36110        0.16777
H         -1.22431        2.05236       -0.24075
H         -2.80822        1.37927        0.19434
H         -1.63450       -1.00462        1.75220
H         -2.91602       -1.07897        0.45329
H         -0.13824       -2.39287        0.39897
H         -1.72184       -3.21284        0.67951
H         -1.36889       -2.46507       -0.92786
H         -0.30728        1.51583        2.04827
H         -1.69287        2.67586        2.06212
H         -1.96645        0.98636        2.55873
H          8.17973        3.51747       -2.78713
C          8.11490        1.42385       -2.26229
C          7.43444        2.69903       -2.76413
C          9.25736        0.98424       -3.18299
H          8.52601        1.61793       -1.24593
H          7.35868        0.61604       -2.18461
H          8.85899        0.78087       -4.19854
H         10.01710        1.79526       -3.25087
C          9.93904       -0.27683       -2.65237
H          6.64789        2.98588       -2.03510
H         10.37372       -0.09182       -1.64607
H          9.21048       -1.11306       -2.58328
H         10.75920       -0.57747       -3.33832
C          2.73020        3.76681        2.49380
C          3.25145        4.33426        1.35451
C          3.83088        3.30637        0.63590
C          3.63788        2.15467        1.38260
N          2.96936        2.44789        2.51726
C          4.12113        0.77531        1.07634
N          3.45900        0.02779       -0.03614
C          3.93533       -1.40230       -0.04079
H          3.19699        5.38196        1.08516
H          2.17697        4.29104        3.27004
H          4.33932        3.40177       -0.31460
H          3.96522        0.24372        2.02749
H          5.20946        0.88044        0.89930
C          3.49241       -2.17992        1.22531
C          3.33240       -2.11797       -1.25827
C          5.48518       -1.50016       -0.17354
H          2.38994       -2.14749        1.34259
H          3.80678       -3.24829        1.14881
H          3.96497       -1.82065        2.15964
H          3.64809       -1.63804       -2.20551
H          3.68389       -3.17693       -1.29319
H          2.22539       -2.12196       -1.20683
H          5.83628       -0.99498       -1.09764
H          6.02541       -1.06864        0.69442
H          5.80960       -2.56177       -0.21712
Na         4.24899        0.55126       -2.20842
Mg         2.11873        1.43361        4.00310
C          8.37996        4.03429       -6.23699
C          6.38700        5.31786       -5.95931
O          6.97985        4.01531       -5.95589
C          9.22436        5.02849       -5.41596
C          6.37981        5.98717       -7.34888
H          8.76836        3.02070       -6.02681
H          8.55178        4.20023       -7.32410
H          5.32590        5.23361       -5.66087
H          6.85126        5.98692       -5.20671
H          5.77532        5.39388       -8.06741
H          5.93373        7.00326       -7.27414
H          7.40244        6.11702       -7.75988
H          9.07741        4.86921       -4.33227
H         10.29912        4.88266       -5.65238
H          8.98860        6.08477       -5.66606
H          1.63941        0.77230        6.49392
C          1.46945       -1.10730        5.39549
C          1.24672        0.39383        5.52628
C          2.95846       -1.45469        5.42161
H          0.94847       -1.62037        6.23367
H          1.02540       -1.44861        4.43505
H          3.47577       -0.94381        4.58061
H          3.40595       -1.11187        6.37990
C          3.16459       -2.96210        5.29203
H          0.15634        0.59891        5.47766
H          2.66757       -3.49283        6.13270
H          2.74343       -3.32904        4.33143
H          4.24949       -3.19532        5.31736
C          6.14146       -1.41612       -8.17928
C          7.13202       -0.47607       -8.04253
C          7.01042        0.07584       -6.76553
C          5.97708       -0.51550       -6.16258
N          5.37582       -1.47489       -7.00181
C          5.50747       -0.28624       -4.74080
N          5.03898        1.07472       -4.38070
C          3.84072        1.61813       -5.06801
H          7.87760       -0.23302       -8.78791
H          5.97270       -2.03318       -9.05575
H          7.65396        0.82724       -6.34127
H          6.35532       -0.53821       -4.07292
H          4.70599       -1.01664       -4.50990
C          2.62510        0.68130       -4.93652
C          3.51349        2.94926       -4.37283
C          4.09927        1.91990       -6.56315
H          2.41122        0.46566       -3.86889
H          1.72486        1.15513       -5.38562
H          2.79575       -0.27473       -5.47271
H          4.37469        3.64041       -4.45202
H          2.62835        3.43939       -4.83357
H          3.31369        2.79207       -3.29231
H          4.98005        2.58019       -6.69278
H          4.24840        1.00269       -7.16035
H          3.21888        2.42970       -7.01159
