96
speciation1029.ct
Na         0.97084        0.79559       -0.06223
Mg         5.47422        2.96699       -1.90130
C          0.10515        2.59045        2.57372
C         -1.65758        2.81088        1.00669
O         -0.39787        2.19009        1.29828
C         -0.82278        2.35255        3.76465
C         -1.52486        4.31972        0.72064
H          1.00031        1.98031        2.77598
H          0.43513        3.65267        2.54625
H         -2.15467        2.29150        0.18034
H         -2.42581        2.62359        1.77725
H         -0.74429        4.51942       -0.04364
H         -2.49205        4.72988        0.35966
H         -1.26436        4.87391        1.64823
H         -1.11106        1.28536        3.80990
H         -0.28570        2.62639        4.69457
H         -1.72336        2.99723        3.72636
H          6.61914        0.74446       -2.63700
C          7.47214        2.20800       -4.01680
C          6.33512        1.67971       -3.15228
C          8.72656        2.47862       -3.18746
H          7.70654        1.42893       -4.77340
H          7.16015        3.13082       -4.55657
H          9.00943        1.55467       -2.63706
H          9.55700        2.74311       -3.87613
C          8.52936        3.62955       -2.20554
H          5.45226        1.49451       -3.80428
H          8.28841        4.55936       -2.76239
H          7.71164        3.40441       -1.48910
H          9.46669        3.79226       -1.63496
C          5.08936        5.37617       -2.70323
C          4.28796        6.35341       -3.18646
C          3.04074        5.73972       -3.41486
C          3.11634        4.37077       -3.02136
N          4.41430        4.20966       -2.64633
C          1.91567        3.28605       -3.24792
N          1.37143        2.04568       -2.43016
C          0.05908        1.50516       -2.97482
H          4.62600        7.37236       -3.35278
H          6.12540        5.48627       -2.37366
H          2.22861        6.30074       -3.85404
H          1.03928        3.92548       -3.52763
H          2.23046        2.85861       -4.20892
C          0.04038        1.28743       -4.50774
C         -0.22791        0.09472       -2.37754
C         -1.12248        2.38399       -2.56708
H          0.23962        2.20479       -5.08747
H         -0.97208        0.92796       -4.81569
H          0.75358        0.48683       -4.79937
H         -0.46601        0.12396       -1.30596
H         -1.14975       -0.35300       -2.81311
H          0.61362       -0.60877       -2.55369
H         -1.07176        3.43710       -2.89111
H         -1.10394        2.38214       -1.48990
H         -2.09171        1.94426       -2.90626
Mg         2.47982        0.78968       -3.44159
C          0.96441       -2.58310        0.65130
C         -1.16765       -1.80726        1.05534
O          0.11735       -1.42418        0.53556
C          0.66107       -3.67125       -0.38786
C         -2.09546       -0.64620        1.28807
H          2.01090       -2.28806        0.51933
H          0.92337       -3.05102        1.67559
H         -1.69536       -2.50400        0.36710
H         -1.07431       -2.29388        2.06187
H         -2.40016       -0.20673        0.32000
H         -3.00462       -1.01432        1.81938
H         -1.59500        0.08933        1.93414
H          0.73909       -3.23389       -1.40034
H          1.38802       -4.50804       -0.28885
H         -0.34603       -4.12036       -0.25080
C          3.76466        4.83710        0.02988
C          2.57403        4.51630        0.64411
C          2.40222        3.18554        0.40989
C          3.44968        2.74177       -0.30854
N          4.26000        3.73146       -0.58931
C          3.75959        1.34851       -0.70062
N          3.23004        0.44936        0.31393
C          4.07013        0.30405        1.54252
H          1.88137        5.16012        1.17175
H          4.16134        5.83741       -0.05046
H          1.64467        2.56762        0.71007
H          4.83975        1.22406       -0.88005
H          3.33399        1.08526       -1.67285
C          4.16606        1.61717        2.35073
C          3.41266       -0.75899        2.41462
C          5.52666       -0.15204        1.23424
H          3.16652        2.00380        2.59890
H          4.71080        1.45877        3.30181
H          4.74184        2.39347        1.80505
H          3.51840       -1.75076        1.93505
H          3.90725       -0.82122        3.40482
H          2.33667       -0.51800        2.55306
H          5.54362       -1.09997        0.65666
H          6.11280        0.60972        0.67774
H          6.08496       -0.30867        2.18241
