68
speciation59.ct
Na         0.96851       -0.07371        0.05979
Mg         3.79111       -1.77280       -0.73619
C         -1.84035       -1.25927       -0.54312
C         -1.95241        1.09390       -0.46566
O         -1.35149       -0.07371        0.05979
C         -1.53594       -1.38064       -2.04173
C         -1.34978        2.32090        0.20347
H         -1.33452       -2.10599       -0.03238
H         -2.92721       -1.38598       -0.34425
H         -1.77862        1.20595       -1.55537
H         -3.04281        1.08781       -0.24299
H         -0.26769        2.39317       -0.03824
H         -1.85880        3.23556       -0.16979
H         -1.47583        2.26327        1.30476
H         -0.45181       -1.23304       -2.22902
H         -1.82838       -2.39191       -2.39440
H         -2.12158       -0.65037       -2.63656
C          5.32241       -1.13549       -3.29974
C          5.71761        0.06717       -3.84874
C          5.24103        1.05901       -3.01284
C          4.58290        0.40742       -1.98874
N          4.65215       -0.91019       -2.15955
C          3.86848        1.00563       -0.81755
N          3.33851       -0.07371        0.05979
C          3.76509        0.00502        1.48107
H          6.28782        0.19708       -4.76014
H          5.51673       -2.11124       -3.71140
H          5.36247        2.12604       -3.13726
H          3.02459        1.62737       -1.18212
H          4.58476        1.67293       -0.30360
C          3.29541        1.33170        2.12574
C          3.09371       -1.14281        2.24981
C          5.29435       -0.15972        1.61621
H          2.19151        1.43370        2.04071
H          3.56574        1.35404        3.20413
H          3.76179        2.22047        1.65717
H          3.44909       -2.11859        1.87585
H          3.34705       -1.09642        3.33164
H          1.98755       -1.09755        2.14903
H          5.61700       -1.11664        1.15215
H          5.85724        0.66267        1.13618
H          5.58859       -0.17432        2.68850
Na         6.45259       -7.09998       -0.38073
C          2.41641       -4.07723        0.40926
C          2.59777       -5.42729        0.60121
C          3.81574       -5.75182        0.03676
C          4.33576       -4.57605       -0.47547
N          3.47661       -3.56920       -0.23916
C          5.65426       -4.34415       -1.15707
N          6.15278       -5.55566       -1.82308
C          7.43910       -5.42054       -2.55162
H          1.91550       -6.09553        1.11058
H          1.56798       -3.48955        0.73275
H          4.26734       -6.73466        0.02697
H          5.49192       -3.55358       -1.90814
H          6.36603       -3.96665       -0.39523
C          8.58598       -5.04650       -1.59073
C          7.74577       -6.78871       -3.18031
C          7.36925       -4.37996       -3.68915
H          8.64884       -5.77743       -0.75779
H          9.55795       -5.03579       -2.12979
H          8.44371       -4.03151       -1.16479
H          6.94455       -7.07374       -3.89596
H          8.71247       -6.76522       -3.72947
H          7.80912       -7.57190       -2.39640
H          6.52928       -4.60140       -4.38299
H          7.26225       -3.35770       -3.28350
H          8.31446       -4.38072       -4.27645
