110
speciation2114.ct
Na         1.18893       -0.34299        0.38013
Mg        -2.33574       -1.76704       -0.69663
C          4.01689        0.47414        1.77622
C          2.68857       -0.50055        3.36981
O          2.76290       -0.17472        1.98553
C          3.99066        1.36665        0.56291
C          1.46157       -1.29207        3.72573
H          4.29020        1.15909        2.62153
H          4.81728       -0.28408        1.64754
H          3.56266       -1.12777        3.67571
H          2.64344        0.43095        3.97543
H          1.58993       -2.32383        3.35006
H          1.37264       -1.36463        4.82936
H          0.56362       -0.77626        3.33085
H          3.24117        2.15184        0.71213
H          4.97457        1.86769        0.43118
H          3.75380        0.76400       -0.33096
H         -2.53623       -3.74868       -2.79080
C         -4.52838       -3.24296       -2.43724
C         -3.16107       -3.52924       -1.90438
C         -5.18213       -4.40950       -3.16754
H         -5.15389       -2.94565       -1.56804
H         -4.40831       -2.46452       -3.19593
H         -4.58461       -4.70329       -4.06273
H         -5.25618       -5.28297       -2.48709
C         -6.58110       -3.96620       -3.58951
H         -3.25898       -4.48352       -1.35667
H         -7.12550       -3.55537       -2.71039
H         -6.51251       -3.16722       -4.36028
H         -7.15677       -4.82209       -3.99023
C          0.02011       -4.33756       -4.66675
C         -0.85515       -3.33818       -5.01510
C         -0.78144       -2.40192       -4.01888
C          0.10686       -2.85864       -3.07431
N          0.62105       -4.04476       -3.49233
C          0.55390       -2.02532       -1.87535
N         -0.10650       -2.17946       -0.54231
C          0.25856       -3.49172        0.13972
H         -1.46560       -3.27251       -5.90531
H          0.22163       -5.22119       -5.26078
H         -1.30816       -1.48235       -3.99826
H          0.36138       -0.97702       -2.17247
H          1.65842       -2.04736       -1.80631
C          1.77685       -3.76193        0.22362
C         -0.28044       -3.46896        1.55097
C         -0.38243       -4.73562       -0.50094
H          2.29369       -2.98864        0.82354
H          1.95344       -4.75330        0.70474
H          2.23837       -3.84433       -0.77821
H         -1.34344       -3.44721        1.47192
H         -0.02485       -4.38516        2.13183
H          0.01802       -2.56071        2.05906
H         -1.44976       -4.60593       -0.51240
H         -0.00409       -4.98464       -1.48993
H         -0.21770       -5.64813        0.11143
Na         2.09827       -5.36527       -2.67134
Mg         2.63517        2.67615       -1.28968
C         -3.57406       -0.12665        1.80720
C         -3.48185       -2.47719        2.01862
O         -3.44893       -1.38859        1.10776
C         -2.54863        0.15220        2.93424
C         -4.77690       -2.68221        2.80354
H         -3.51697        0.69115        1.06584
H         -4.59759        0.00176        2.23696
H         -3.39371       -3.39800        1.41222
H         -2.64758       -2.40231        2.74878
H         -5.61953       -2.90007        2.11836
H         -4.62445       -3.56106        3.47054
H         -5.01788       -1.82360        3.46047
H         -2.78965       -0.40242        3.86963
H         -2.55812        1.23204        3.21113
H         -1.53116       -0.11891        2.60400
H         -2.46135        0.89687       -1.58232
C         -4.39468        0.23907       -2.25328
C         -2.88631       -0.00857       -2.03277
C         -4.72839        1.36701       -3.24181
H         -4.87587       -0.63032       -2.68418
H         -4.87930        0.42518       -1.27686
H         -4.34805        2.33567       -2.85946
H         -4.26708        1.16839       -4.23793
C         -6.24949        1.43961       -3.42652
H         -2.43958       -0.09670       -3.03142
H         -6.63901        0.48320       -3.84512
H         -6.73823        1.61594       -2.44528
H         -6.52416        2.25862       -4.12216
C          5.29249        4.48347       -1.77332
C          6.09487        4.28131       -2.85310
C          5.41680        3.30098       -3.56886
C          4.27556        3.05635       -2.81453
N          4.26971        3.63541       -1.89647
C          2.36050        1.99190       -2.24361
N          1.00062        1.71690       -0.68290
C          0.22055        2.80995       -0.05324
H          7.04854        4.76118       -3.02836
H          5.44733        5.13323       -0.91815
H          5.76663        2.81870       -4.47176
H          1.71238        2.47634       -3.01002
H          2.43021        0.99546       -2.74771
C         -0.72526        3.46046       -1.07148
C         -0.65314        2.21756        1.08091
C          1.14028        3.87633        0.55536
H         -1.60334        2.81930       -1.26677
H         -1.13645        4.41066       -0.66470
H         -0.20877        3.65517       -2.02766
H         -0.04026        1.74528        1.88008
H         -1.28756        2.99989        1.55607
H         -1.33195        1.43749        0.67678
H          1.73208        3.46504        1.39611
H          1.80521        4.30499       -0.21880
H          0.53478        4.70024        0.99350
