83
speciation495.ct
Na         0.27933        1.35188       -0.26599
Mg        -0.51092       -1.12673       -0.00037
C          2.14547        3.13410       -1.81799
C          0.58225        4.44712       -0.58313
O          0.90542        3.17847       -1.12625
C          3.36372        3.48402       -0.96730
C          0.40887        5.53161       -1.65370
H          2.29510        2.10486       -2.15091
H          2.10792        3.71159       -2.76518
H         -0.40337        4.35812       -0.08679
H          1.31382        4.75515        0.19193
H         -0.37482        5.23013       -2.38077
H          0.10448        6.48268       -1.16928
H          1.35685        5.72750       -2.19552
H          3.37478        2.86308       -0.04750
H          4.28483        3.27693       -1.55306
H          3.36716        4.56042       -0.70369
C         -2.92380        4.36227        2.06889
C         -4.25160        3.98606        2.06468
C         -4.27397        2.62027        1.87929
C         -2.95340        2.22194        1.74803
N         -2.13200        3.28463        1.89055
C         -2.49730        0.79973        1.49368
N         -1.75168        0.59323        0.19582
C         -2.57740        0.79099       -1.03721
H         -5.10568        4.63605        2.18480
H         -2.55536        5.36916        2.19764
H         -5.15403        1.99031        1.82157
H         -3.35772        0.11215        1.55699
H         -1.90957        0.54687        2.37020
C         -2.99812        2.26410       -1.25043
C         -1.71551        0.42189       -2.23762
C         -3.82776       -0.11896       -1.06926
H         -2.11727        2.93528       -1.17731
H         -3.45614        2.39635       -2.25246
H         -3.77836        2.60502       -0.55864
H         -1.34920       -0.61744       -2.13441
H         -2.29589        0.49735       -3.18197
H         -0.87341        1.13344       -2.31103
H         -3.52846       -1.18428       -1.07563
H         -4.52313        0.07120       -0.22601
H         -4.41358        0.06308       -1.99407
Na        -0.00059        3.31816        1.88309
C         -1.82351       -3.82178        0.52795
C         -0.27123       -3.88674       -1.16406
O         -1.03541       -3.01717       -0.33544
C         -2.78402       -2.99930        1.36122
C          0.54192       -3.12240       -2.17200
H         -2.46920       -4.49695       -0.08421
H         -1.18526       -4.42874        1.21105
H          0.43286       -4.50960       -0.56264
H         -0.94658       -4.53415       -1.76753
H          1.29611       -2.58062       -1.60768
H          1.07059       -3.81502       -2.86005
H         -0.09967       -2.44257       -2.76688
H         -3.42781       -2.38512        0.71191
H         -3.44262       -3.68960        1.93121
H         -2.23034       -2.35608        2.06932
C          1.51653        0.03655       -3.81372
C          2.83835       -0.29241       -4.00514
C          3.37087       -0.59317       -2.76308
C          2.41016       -0.44464       -1.84701
N          1.20344       -0.05657       -2.44916
C          2.59961       -0.68124       -0.37645
N          1.39277       -0.42065        0.45846
C          1.67579       -0.58392        1.91978
H          3.35338       -0.30488       -4.95634
H          0.81734        0.32845       -4.58562
H          4.39145       -0.89427       -2.56527
H          3.41954        0.00219       -0.08904
H          2.94149       -1.72825       -0.25532
C          2.78436        0.37394        2.42033
C          0.41720       -0.23941        2.68303
C          2.04076       -2.04623        2.28238
H          2.52952        1.42511        2.16419
H          2.88635        0.30094        3.52556
H          3.78082        0.12729        2.00625
H         -0.38799       -0.93017        2.35971
H          0.54843       -0.35780        3.78050
H          0.16958        0.82234        2.47755
H          1.22201       -2.74105        1.99367
H          2.97986       -2.38360        1.80370
H          2.19965       -2.14142        3.37982
