110
speciation2646.ct
Na         0.28248       -4.12386        0.37423
Mg         1.10130        4.03648       -4.14334
C         -0.82995        4.32464       -2.43755
C         -0.13339        6.54196       -2.67761
O          0.26519        5.15722       -2.68681
C         -2.01314        4.47578       -3.41755
C         -0.80224        7.00492       -1.35537
H         -0.38830        3.33520       -2.51305
H         -1.15863        4.37262       -1.38433
H          0.75366        7.19330       -2.75807
H         -0.78421        6.78019       -3.54304
H         -0.05162        7.04610       -0.53673
H         -1.23953        8.01670       -1.49014
H         -1.65031        6.37579       -1.02054
H         -1.69320        4.27285       -4.45553
H         -2.83048        3.79148       -3.12823
H         -2.46430        5.48816       -3.40451
H          4.08860        1.53536       -0.36971
C          4.20212        3.65916       -0.74330
C          3.93902        2.19943       -1.24625
C          3.36057        4.34945        0.36354
H          5.25477        3.69876       -0.37737
H          4.15358        4.31702       -1.63120
H          3.75714        5.38833        0.45025
H          2.30077        4.44675        0.07741
C          3.47994        3.75225        1.76941
H          4.82360        2.03809       -1.88473
H          2.98815        2.76242        1.83376
H          4.54501        3.66904        2.07750
H          2.98164        4.43702        2.49603
C          0.46968        2.22204       -0.19767
C         -0.31396        2.05343        0.92734
C         -0.34040        0.71104        1.17974
C          0.39797        0.11220        0.16352
N          0.91361        1.04045       -0.68460
C          0.60304       -1.37052        0.05857
N         -0.57947       -2.16973        0.43442
C         -1.81737       -2.12786       -0.40264
H         -0.81227        2.81960        1.51954
H          0.69941        3.17543       -0.61643
H         -0.86750        0.23810        1.99467
H          1.38525       -1.61079        0.80280
H          1.01085       -1.63293       -0.92915
C         -1.51285       -2.56359       -1.84614
C         -2.84190       -3.11337        0.20026
C         -2.49833       -0.74055       -0.41457
H         -1.17614       -3.62105       -1.86722
H         -2.42347       -2.47207       -2.47737
H         -0.73052       -1.92820       -2.30201
H         -3.11895       -2.81472        1.23558
H         -3.77576       -3.13182       -0.40643
H         -2.43472       -4.14467        0.23642
H         -2.76349       -0.41866        0.61573
H         -1.87941        0.03161       -0.89876
H         -3.44121       -0.77177       -1.00225
Na        -0.91420       -1.94598        2.54178
Mg         2.22895        0.94724       -2.37489
C          3.39191        5.36769       -4.95716
C          1.41428        6.53381       -5.53765
O          2.03052        5.26231       -5.35734
C          3.68899        6.21628       -3.72134
C          1.90117        7.28362       -6.77920
H          3.69329        4.37179       -4.64251
H          4.04253        5.63943       -5.81690
H          0.31951        6.38660       -5.63796
H          1.56755        7.19783       -4.67989
H          1.61990        6.74018       -7.70252
H          1.43000        8.29162       -6.79562
H          2.99928        7.43880       -6.75399
H          3.03097        5.89942       -2.88707
H          4.74926        6.05456       -3.42965
H          3.57093        7.29881       -3.91831
H          2.17471       -1.87268       -3.39651
C          3.74622       -2.55990       -2.35940
C          3.04487       -1.33453       -3.00588
C          5.19362       -2.29205       -1.95301
H          3.14683       -2.90479       -1.49160
H          3.77351       -3.41035       -3.09240
H          5.79763       -2.07723       -2.86284
H          5.21365       -1.41816       -1.27670
C          5.81028       -3.49597       -1.22914
H          3.66262       -1.08826       -3.89959
H          5.22274       -3.74196       -0.31904
H          5.85065       -4.39523       -1.88322
H          6.84685       -3.24569       -0.91784
C          5.55404        2.91356       -6.12632
C          5.67420        2.36399       -4.85934
C          4.44434        1.83119       -4.53262
C          3.59538        2.09846       -5.49733
N          4.22841        2.77742       -6.56514
C          2.19405        1.62904       -5.53527
N          1.31958        1.81058       -4.31968
C          0.01800        1.05383       -4.65893
H          6.57683        2.33779       -4.26784
H          6.35660        3.37940       -6.68935
H          4.16342        1.27838       -3.66583
H          2.37235        0.56585       -5.73875
H          1.74768        2.09969       -6.43114
C          0.21811       -0.45160       -5.01357
C         -0.95514        0.99604       -3.46813
C         -0.74978        1.65681       -5.86587
H          0.63803       -0.94494       -4.15496
H         -0.75011       -0.96198       -5.19350
H          0.78738       -0.67079       -5.93763
H         -1.50124        1.91226       -3.30285
H         -1.78359        0.29007       -3.66102
H         -0.42406        0.62106       -2.58451
H         -0.93665        2.73133       -5.73093
H         -0.22614        1.51137       -6.83148
H         -1.72719        1.14259       -5.99449
