96
speciation1383.ct
Na         0.93151        0.01726       -0.07079
Mg         4.27544       -1.23143        1.17947
C         -1.92136       -0.71327        1.02293
C         -1.98304       -0.37548       -1.30135
O         -1.38849        0.01726       -0.07079
C         -1.69528       -2.23060        0.94851
C         -1.41961        0.42507       -2.46703
H         -1.41495       -0.33950        1.93666
H         -3.00322       -0.48760        1.15560
H         -1.79109       -1.44276       -1.53923
H         -3.07532       -0.17094       -1.27215
H         -0.36539        0.18368       -2.61876
H         -1.94249        0.14310       -3.40530
H         -1.51677        1.51513       -2.29650
H         -0.62586       -2.45015        0.76182
H         -2.00672       -2.69850        1.90573
H         -2.30789       -2.69853        0.15052
H          3.16225       -0.88600        3.71543
C          1.66112       -2.31187        3.17170
C          2.66240       -1.19993        2.78015
C          2.32593       -3.54792        3.78217
H          0.95898       -1.90641        3.93799
H          1.05503       -2.61081        2.29420
H          2.90914       -3.25791        4.68232
H          1.54199       -4.27393        4.09682
C          3.23199       -4.22809        2.77633
H          2.04038       -0.34199        2.44716
H          2.63081       -4.55704        1.90013
H          4.01821       -3.51560        2.45481
H          3.71881       -5.11302        3.23282
C          5.78347        3.05097        1.57504
C          4.95798        4.14741        1.41299
C          3.80377        3.66497        0.88412
C          3.97890        2.29579        0.75430
N          5.17779        1.89532        1.18157
C          2.94460        1.44190        0.20718
N          3.30151        0.01726       -0.07079
C          3.54593       -0.10351       -1.56855
H          5.17144        5.18003        1.66282
H          6.77731        3.10082        1.99038
H          2.92383        4.24509        0.60245
H          2.05569        1.53261        0.85079
H          2.69798        2.00242       -0.71181
C          4.82192        0.69615       -1.95037
C          3.79356       -1.52029       -1.96784
C          2.29202        0.22031       -2.43222
H          5.63824        0.32843       -1.31002
H          5.12741        0.53024       -3.00548
H          4.74815        1.78461       -1.77998
H          2.93805       -2.21078       -1.80209
H          4.14230       -1.62495       -3.02257
H          4.56717       -1.72082       -1.30481
H          1.52326       -0.53587       -2.17308
H          1.81456        1.20452       -2.32495
H          2.50762        0.09945       -3.51532
Mg         6.21821        0.19233        1.37188
C          8.10137        1.04042        3.49451
C          5.84421        0.73950        4.25649
O          6.80442        0.54039        3.21686
C          8.77347        0.26147        4.62540
C          5.73202        2.16649        4.84317
H          8.72064        0.90219        2.58579
H          8.10519        2.13286        3.68768
H          4.85163        0.50702        3.83501
H          6.02184        0.01003        5.07242
H          5.42636        2.90920        4.08515
H          4.94907        2.17703        5.63060
H          6.67155        2.50435        5.32463
H          8.79313       -0.82058        4.37899
H          9.81270        0.62163        4.76656
H          8.23006        0.40449        5.58239
C          8.21318        1.11462       -0.78188
C          9.26012        0.35492       -1.27154
C          9.26453       -0.83403       -0.55543
C          8.18392       -0.75611        0.30307
N          7.57774        0.39506        0.17579
C          7.62209       -1.77171        1.27702
N          6.19358       -2.06487        0.95593
C          6.13859       -3.15765       -0.14778
H          9.93146        0.62253       -2.07456
H          7.90380        2.07723       -1.13015
H          9.93852       -1.66278       -0.68818
H          8.26981       -2.65712        1.34858
H          7.66140       -1.37178        2.29104
C          6.98185       -4.43664        0.13849
C          4.69824       -3.79707       -0.24804
C          6.72414       -2.67875       -1.54541
H          6.67812       -4.92116        1.08718
H          6.83749       -5.17589       -0.68650
H          8.07585       -4.27982        0.14250
H          3.84897       -3.12777       -0.03692
H          4.56371       -4.30767       -1.23313
H          4.53288       -4.58738        0.50374
H          6.45608       -1.68290       -1.93217
H          7.82380       -2.64270       -1.52133
H          6.49710       -3.41571       -2.34812
