83
speciation523.ct
Na         3.14973        0.99139        1.71189
Mg         2.03026       -1.51739       -3.71343
C          5.26779        0.78382        3.77613
C          5.62399        2.48662        2.15498
O          5.00858        1.25683        2.46716
C          4.80615        1.71316        4.90284
C          5.20127        2.89928        0.75025
H          4.70716       -0.16857        3.88401
H          6.34199        0.52044        3.88793
H          5.30918        3.30152        2.83956
H          6.72927        2.36446        2.15719
H          4.10307        3.06257        0.71099
H          5.71453        3.83788        0.45505
H          5.46451        2.10849        0.02394
H          3.74001        1.98947        4.76674
H          4.91938        1.18721        5.87503
H          5.43163        2.62809        4.95013
C          0.74225        2.99019        2.10671
C         -0.58642        3.02991        1.71840
C         -0.82073        1.89118        0.97070
C          0.37806        1.20763        0.94342
N          1.31296        1.87633        1.63123
C          0.67164       -0.11598        0.30980
N          2.12081       -0.40128        0.45044
C          2.48065       -1.76324        0.87259
H         -1.30175        3.80011        1.96724
H          1.25763        3.71832        2.71524
H         -1.75971        1.58605        0.52144
H          0.38306       -0.16194       -0.75349
H          0.02045       -0.85810        0.80229
C          1.94925       -2.81101       -0.11425
C          4.01440       -1.85652        0.87914
C          1.96251       -2.02729        2.29588
H          2.33099       -2.59581       -1.13864
H          2.28139       -3.83219        0.17285
H          0.84312       -2.80409       -0.12289
H          4.45405       -1.07529        1.52856
H          4.35214       -2.84975        1.24211
H          4.42012       -1.72683       -0.14277
H          2.32309       -1.22755        2.97714
H          0.85666       -2.04686        2.34367
H          2.31868       -3.01134        2.66194
Na         3.31755       -0.01379       -1.24509
C          0.51449       -2.98572       -5.42547
C         -0.01989       -3.42946       -3.14988
O          0.99174       -3.11172       -4.09185
C         -0.68917       -2.04729       -5.60641
C         -0.57523       -4.84571       -3.33123
H          1.35037       -2.56450       -6.02190
H          0.30742       -3.98507       -5.86420
H          0.44829       -3.43393       -2.16217
H         -0.82365       -2.66713       -3.10601
H          0.24853       -5.58928       -3.27371
H         -1.30302       -5.06232       -2.52024
H         -1.10175       -4.95559       -4.30059
H         -0.48072       -1.05802       -5.15120
H         -0.89414       -1.91215       -6.68862
H         -1.60792       -2.47535       -5.15403
C          6.54735       -0.02965       -1.19060
C          7.52441       -0.02476       -2.16724
C          6.86939       -0.00734       -3.38275
C          5.52226        0.00042       -3.08590
N          5.33051       -0.01040       -1.76520
C          4.38900        0.01660       -4.04935
N          3.09555        0.11802       -3.32524
C          2.29331        1.31981       -3.69347
H          8.59527       -0.03405       -2.00975
H          6.71483       -0.05248       -0.12305
H          7.32269        0.00400       -4.36518
H          4.40062       -0.91731       -4.65254
H          4.56383        0.85620       -4.74750
C          1.90451        1.29881       -5.19092
C          1.00171        1.30872       -2.87956
C          3.03978        2.63249       -3.34405
H          1.37506        0.35674       -5.43877
H          1.23270        2.15233       -5.42933
H          2.78060        1.38629       -5.86226
H          1.25987        1.44407       -1.81426
H          0.34083        2.15787       -3.15972
H          0.44433        0.36060       -3.04028
H          3.31577        2.64344       -2.26693
H          3.96511        2.77398       -3.93484
H          2.39070        3.51285       -3.54507
