95
speciation1187.ct
Na         6.23417        5.37486       -5.99048
Mg         4.06737        2.53822       -1.38757
C          6.91653        8.30348       -5.24254
C          5.84099        8.04018       -7.25725
O          6.74858        7.43153       -6.36225
C          8.01507        7.81435       -4.30700
C          5.72605        7.19572       -8.51194
H          7.24490        9.31570       -5.58651
H          5.96747        8.40904       -4.67534
H          4.83700        8.15662       -6.79409
H          6.23041        9.03383       -7.58628
H          5.31151        6.19845       -8.26139
H          5.04917        7.70426       -9.23108
H          6.72576        7.07690       -8.98193
H          8.98046        7.73954       -4.84798
H          8.13488        8.55033       -3.47759
H          7.75031        6.83049       -3.87550
H          2.28469        1.02741        0.48444
C          0.64282        2.41801        0.31735
C          2.21052        2.11583        0.27522
C         -0.16766        1.65455       -0.75339
H          0.20950        2.14999        1.31200
H          0.45364        3.50613        0.22236
H          0.34833        1.78424       -1.71193
H         -0.17672        0.56806       -0.51655
C         -1.62694        2.12341       -0.94830
H          2.60945        2.64604        1.16428
H         -2.27419        1.92262       -0.06797
H         -1.68269        3.20828       -1.18298
H         -2.06813        1.58340       -1.81674
C          3.35715        0.24415       -2.96126
C          3.26918       -0.33717       -4.20059
C          3.64080        0.61546       -5.11578
C          3.99807        1.74959       -4.38514
N          3.73891        1.53747       -3.07198
C          4.52851        3.05725       -5.00782
N          5.90198        3.17158       -5.59142
C          6.40516        2.27592       -6.67128
H          2.97110       -1.35545       -4.41994
H          3.16669       -0.24991       -2.01977
H          3.66501        0.46307       -6.17924
H          4.56034        3.76385       -4.16842
H          3.78870        3.41112       -5.75125
C          5.45796        2.18484       -7.88956
C          7.73118        2.87164       -7.18713
C          6.76096        0.87578       -6.11636
H          5.32913        3.18130       -8.36371
H          5.88584        1.50091       -8.66041
H          4.45469        1.80944       -7.63300
H          8.46240        2.98302       -6.36089
H          8.18936        2.21723       -7.96622
H          7.56247        3.86880       -7.64323
H          7.45999        0.96755       -5.25815
H          5.91033        0.28806       -5.77470
H          7.24633        0.25188       -6.89840
Na         7.41564        3.44887       -4.12274
Mg        -0.84337        5.39459       -1.64949
H          6.15408        0.79873       -1.63267
C          7.71969        2.09048       -0.98922
C          6.28666        1.90053       -1.54635
C          7.89120        1.44149        0.37899
H          8.45019        1.61241       -1.69243
H          7.96757        3.17415       -0.95064
H          7.16396        1.89699        1.07660
H          7.69132        0.35070        0.29025
C          9.30528        1.62432        0.93912
H          6.36013        2.28174       -2.58347
H         10.06514        1.12899        0.29488
H          9.55577        2.70316        1.03000
H          9.35295        1.16593        1.95021
C          5.35528        5.18384       -2.04443
C          5.11787        6.53286       -2.25226
C          3.77239        6.72444       -2.07320
C          3.24395        5.48803       -1.77244
N          4.20727        4.53913       -1.73654
C          1.81263        5.22527       -1.48843
N          0.87339        5.76333       -2.49491
C          0.78201        5.11170       -3.81841
H          5.83942        7.29210       -2.50826
H          6.32379        4.71163       -2.11560
H          3.23110        7.65966       -2.16607
H          1.67794        4.15154       -1.34887
H          1.58175        5.73713       -0.53033
C          0.57855        3.58605       -3.70688
C         -0.44498        5.70461       -4.52367
C          2.00439        5.41284       -4.68990
H         -0.33688        3.38245       -3.11629
H          0.44498        3.12597       -4.70788
H          1.45685        3.09118       -3.24365
H         -0.32199        6.80438       -4.63883
H         -0.58098        5.25784       -5.53143
H         -1.36126        5.51825       -3.92681
H          2.13713        6.50716       -4.82443
H          2.90764        5.02636       -4.22022
H          1.90332        4.93262       -5.68837
