83
speciation725.ct
Na         1.16876        0.72504        0.18797
Li         3.61822        1.12450       -2.65936
C          4.96726       -1.47759       -3.30229
C          3.44609       -1.14200       -4.97906
O          3.87583       -0.65652       -3.72335
C          6.17613       -1.56183       -4.24884
C          2.22390       -0.38297       -5.54009
H          5.36721       -1.06718       -2.35526
H          4.61224       -2.50637       -3.04902
H          4.19996       -1.01510       -5.77873
H          3.10664       -2.19443       -4.91236
H          2.48230        0.69411       -5.69419
H          1.94002       -0.81443       -6.50555
H          1.35305       -0.46853       -4.84226
H          6.53176       -0.55032       -4.51470
H          7.00233       -2.12067       -3.75450
H          5.93812       -2.13116       -5.17095
C          1.36774        2.65862       -3.56616
C          0.18288        3.22477       -3.87283
C         -0.70733        2.66960       -3.04856
C         -0.04558        1.76635       -2.22955
N          1.34801        1.74611       -2.57943
C         -1.09655        1.01699       -1.28144
N         -0.88464        1.09666        0.17774
C         -2.10815        1.03386        1.11633
H         -0.00568        3.95227       -4.64626
H          2.24989        2.90553       -4.06556
H         -1.76702        2.88158       -3.07176
H         -1.22786       -0.04004       -1.59100
H         -2.09428        1.46618       -1.45491
C         -3.18138       -0.00935        0.69984
C         -1.80736        0.71914        2.62099
C         -2.74486        2.43193        1.15986
H         -2.78405       -1.04673        0.75609
H         -4.05185        0.03251        1.40283
H         -3.58772        0.17620       -0.31035
H         -1.03896        1.38795        3.05656
H         -2.71454        0.86860        3.25389
H         -1.60469       -0.34722        2.82309
H         -1.99381        3.16331        1.52903
H         -3.11222        2.74466        0.16804
H         -3.60942        2.45511        1.86469
Na         0.33132       -0.59539       -0.08860
C          5.04433        3.21112       -4.54661
C          6.61215        2.26816       -3.07698
O          5.18569        2.49283       -3.32459
C          5.69261        2.56191       -5.76978
C          7.44960        3.56796       -2.86102
H          4.00498        3.29291       -4.79515
H          5.35634        4.27096       -4.41543
H          6.78918        1.64881       -2.18910
H          7.09115        1.65239       -3.85826
H          7.09232        4.15584       -1.98938
H          8.51927        3.31499       -2.67600
H          7.45598        4.22927       -3.75299
H          5.37182        1.50191       -5.83449
H          5.37204        3.10827       -6.67818
H          6.80017        2.62651       -5.73501
C          5.28692        1.77410       -0.33154
C          5.90221        1.19002        0.74322
C          5.36962       -0.06836        0.84528
C          4.39215       -0.16505       -0.12506
N          4.44530        0.89956       -0.92114
C          3.39383       -1.24380       -0.31456
N          2.24581       -0.99965        0.56829
C          2.20665       -1.11240        2.03019
H          6.66899        1.62389        1.36650
H          5.50857        2.76106       -0.71043
H          5.65451       -0.81701        1.56285
H          3.79844       -2.26889       -0.23639
H          2.98182       -1.13177       -1.34305
C          3.17830       -0.18785        2.78775
C          0.84373       -0.62145        2.46847
C          2.33774       -2.57458        2.40391
H          3.18403        0.83931        2.34675
H          2.89069       -0.08591        3.85362
H          4.16015       -0.63298        2.87502
H          0.06635       -1.21100        1.94613
H          0.69115       -0.72029        3.56263
H          0.74952        0.46067        2.23255
H          1.48794       -3.13880        1.95459
H          3.28111       -2.97800        1.98830
H          2.31929       -2.69018        3.50308
