80
speciation891.ct
Na         4.42913        6.69077        3.17980
Mg        -1.18047        3.37479        3.56652
H          1.16212        3.45698        4.73460
C          0.19858        2.86741        6.55511
C          0.18158        3.62209        5.22797
C          0.35460        1.35819        6.37198
H          1.06088        3.24758        7.15079
H         -0.73682        3.08605        7.11160
H         -0.51381        0.96769        5.80216
H          1.28712        1.13610        5.80827
C          0.42479        0.65742        7.73000
H          0.10926        4.69279        5.49392
H          1.31610        1.00312        8.29836
H         -0.48848        0.87547        8.32445
H          0.50238       -0.43984        7.58323
C          6.98513        6.69294        5.31883
C          8.29844        7.11762        5.25243
C          8.51321        7.54466        3.95974
C          7.31968        7.35737        3.29624
N          6.37391        6.87676        4.12162
C          7.05700        7.66481        1.86468
N          5.68792        7.23894        1.51119
C          5.00725        8.05584        0.48301
H          9.02435        7.12446        6.05562
H          6.48393        6.32157        6.20187
H          9.43284        7.94629        3.54999
H          7.77816        7.11624        1.22035
H          7.23521        8.74594        1.73854
C          5.78650        8.01403       -0.84320
C          3.61416        7.44366        0.25817
C          4.80390        9.52174        0.94346
H          5.90480        6.96386       -1.18779
H          5.24737        8.58231       -1.63223
H          6.79623        8.46053       -0.73055
H          3.02596        7.48424        1.19572
H          3.05242        8.00902       -0.51680
H          3.69280        6.38294       -0.05992
H          4.23129        9.55834        1.89443
H          5.75189       10.07296        1.08746
H          4.24067       10.09016        0.17163
Na         5.87222        5.24577        0.76244
Mg        -1.32540        5.68429        1.08788
H         -3.04209        2.23173        5.23271
C         -4.28693        2.00228        3.48369
C         -3.23189        2.79372        4.29430
C         -3.79007        0.60292        3.08736
H         -5.21190        1.88774        4.09745
H         -4.56861        2.57770        2.57521
H         -2.86500        0.69176        2.48616
H         -3.55661        0.01363        4.00008
C         -4.82373       -0.16248        2.25815
H         -3.70191        3.76031        4.58002
H         -5.74550       -0.35496        2.84849
H         -5.09384        0.40569        1.34108
H         -4.39820       -1.14079        1.94521
C          1.80619        7.44541        4.23801
C          0.43918        7.42162        4.37639
C         -0.01457        6.39750        3.58522
C          1.10094        5.82009        3.00138
N          2.22818        6.47933        3.40078
C          1.05157        4.64668        2.04845
N         -0.34422        4.16991        1.84238
C         -0.49995        3.05878        0.87283
H         -0.16116        8.08424        4.98363
H          2.47207        8.14577        4.72338
H         -1.04853        6.10636        3.45698
H          1.49112        4.99612        1.09334
H          1.67697        3.83605        2.46862
C          0.13488        1.77940        1.45034
C         -2.00432        2.84085        0.67580
C          0.09223        3.36433       -0.52360
H         -0.26394        1.57866        2.46973
H         -0.08047        0.90064        0.80756
H          1.23863        1.87459        1.51970
H         -2.47599        3.73007        0.20530
H         -2.20615        1.95688        0.03070
H         -2.48380        2.69724        1.64998
H         -0.38498        4.26570       -0.96758
H          1.19059        3.50991       -0.49798
H         -0.10344        2.51012       -1.20888
