83
speciation263.ct
Na         0.14774        2.87633        4.51432
Mg        -3.67285        0.98990        0.25515
C          2.55430        3.61754        6.28522
C          2.08169        5.28183        4.65095
O          1.98509        3.91019        5.00642
C          2.02975        4.48311        7.44289
C          3.53358        5.70393        4.38860
H          2.30844        2.56375        6.50901
H          3.66806        3.63033        6.25959
H          1.49550        5.45434        3.72283
H          1.62429        5.93929        5.41590
H          3.95523        5.17706        3.50634
H          3.57773        6.79751        4.21826
H          4.17404        5.49388        5.26669
H          0.93971        4.63141        7.32164
H          2.22805        3.98237        8.41478
H          2.52799        5.47988        7.46870
C          0.02150        3.61065        1.39542
C         -0.42070        3.25403        0.13350
C         -1.10080        2.07591        0.27750
C         -1.04910        1.76276        1.62447
N         -0.35625        2.69969        2.31850
C         -1.68223        0.56493        2.24055
N         -2.40165       -0.20977        1.22008
C         -3.10046       -1.40935        1.71456
H         -0.26990        3.78636       -0.79684
H          0.59143        4.49814        1.61944
H         -1.58241        1.50910       -0.51304
H         -0.88478       -0.04544        2.70728
H         -2.39184        0.94595        2.99391
C         -4.15421       -1.02910        2.77480
C         -3.80807       -2.04049        0.51431
C         -2.11511       -2.45350        2.28103
H         -4.85443       -0.26472        2.37048
H         -4.73306       -1.92083        3.08435
H         -3.68117       -0.62819        3.69426
H         -3.07552       -2.34636       -0.26356
H         -4.39666       -2.93087        0.82441
H         -4.48587       -1.29899        0.06738
H         -1.35013       -2.72384        1.51920
H         -1.59896       -2.08568        3.18895
H         -2.66341       -3.37649        2.56839
Na        -8.01171        1.40004       -3.98615
C         -2.59086        2.77556        5.79748
C         -0.96853        1.73643        7.19980
O         -1.32981        2.10126        5.86979
C         -2.74512        3.99445        6.72396
C         -1.87779        0.62765        7.76334
H         -2.72040        3.11993        4.75512
H         -3.44078        2.07602        5.94099
H          0.08229        1.37204        7.22871
H         -0.96738        2.61423        7.87251
H         -1.61033       -0.37140        7.36184
H         -1.82454        0.62114        8.87180
H         -2.93789        0.79507        7.51732
H         -1.89478        4.68804        6.56853
H         -3.69840        4.51623        6.49988
H         -2.80157        3.70406        7.79645
C         -4.82720        3.48967       -0.84880
C         -5.86896        4.02404       -1.58359
C         -6.68154        2.97149       -1.93081
C         -6.09741        1.83525       -1.39705
N         -4.95665        2.15060       -0.73934
C         -6.65874        0.45068       -1.50815
N         -6.75404        0.03178       -2.91725
C         -7.30282       -1.32771       -3.15942
H         -6.02570        5.06607       -1.83633
H         -4.01948        4.06187       -0.41288
H         -7.59792        3.03859       -2.50439
H         -5.99136       -0.22133       -0.95904
H         -7.65918        0.45922       -1.03064
C         -8.73646       -1.46552       -2.60375
C         -7.35138       -1.53629       -4.68509
C         -6.41417       -2.43293       -2.54345
H         -9.39997       -0.68224       -3.02804
H         -9.15620       -2.46273       -2.86154
H         -8.75217       -1.38933       -1.49798
H         -6.33720       -1.42461       -5.12806
H         -7.74196       -2.54653       -4.94226
H         -8.01268       -0.78037       -5.15884
H         -5.38893       -2.41737       -2.97065
H         -6.34580       -2.33635       -1.44221
H         -6.85686       -3.43341       -2.74631
