96
speciation1320.ct
Na         1.33375        2.10537        0.49816
Mg         3.58464       -0.21172       -1.50272
C         -0.15845        3.54325        3.21280
C          2.11587        3.87544        3.02710
O          1.03394        3.08039        2.54169
C         -1.30918        2.54072        3.22653
C          2.69559        3.31505        4.34020
H          0.03873        3.65292        4.30020
H         -0.51260        4.52506        2.83659
H          2.90224        3.97628        2.26137
H          1.78885        4.92777        3.18492
H          3.42331        2.50786        4.15491
H          3.22538        4.11919        4.88530
H          1.91441        2.90961        5.02012
H         -0.96107        1.51668        3.47660
H         -2.05373        2.85131        3.99516
H         -1.83711        2.57295        2.27119
H          4.72767       -1.47736       -3.79502
C          6.30205       -0.11473       -3.17612
C          4.81967       -0.44559       -3.39551
C          6.85981       -1.01796       -2.09294
H          6.87617       -0.24244       -4.12311
H          6.41782        0.94168       -2.85796
H          6.24836       -0.88079       -1.18756
H          6.79553       -2.07539       -2.42810
C          8.29879       -0.67267       -1.73939
H          4.45973        0.22949       -4.20374
H          8.95605       -0.78306       -2.62635
H          8.35959        0.37020       -1.35926
H          8.64403       -1.36112       -0.94011
C         -1.71809        1.00783        0.24185
C         -2.18467       -0.24645       -0.04153
C         -1.08792       -1.05488       -0.13362
C          0.03183       -0.26525        0.10784
N         -0.35445        1.00598        0.29944
C          1.49790       -0.76260        0.13111
N          2.56281        0.27207        0.27791
C          3.55119        0.17996        1.41199
H         -3.24204       -0.51507       -0.18048
H         -2.33736        1.88565        0.33749
H         -1.11346       -2.11311       -0.36326
H          1.64208       -1.22387       -0.87087
H          1.58485       -1.56541        0.88785
C          4.39389       -1.10225        1.39052
C          4.54433        1.35758        1.30938
C          2.86141        0.24828        2.78118
H          4.91661       -1.22221        0.43282
H          5.16998       -1.04090        2.19191
H          3.78565       -2.00262        1.59784
H          4.02221        2.30187        1.47584
H          5.32809        1.31230        2.09434
H          5.08036        1.37342        0.33789
H          2.19327        1.11031        2.83121
H          2.25897       -0.65377        2.99282
H          3.62906        0.33730        3.58484
Mg        -2.01682        6.10217       -1.19567
C         -1.60302        9.10511       -1.44913
C         -2.30989        8.02659        0.57191
O         -2.28054        7.99320       -0.85204
C         -0.26470        9.62233       -0.84524
C         -3.05290        9.22336        1.18239
H         -1.41841        8.88594       -2.52211
H         -2.32627        9.94685       -1.47266
H         -2.85176        7.11920        0.90877
H         -1.29740        7.91921        1.00535
H         -4.10975        9.24944        0.84557
H         -3.04467        9.11820        2.29023
H         -2.55877       10.18600        0.93772
H          0.59986        9.30427       -1.46260
H         -0.27557       10.73586       -0.88607
H         -0.05415        9.38209        0.21149
C         -2.72600        3.32765       -1.94382
C         -2.18206        2.15144       -2.40718
C         -0.80871        2.28542       -2.28436
C         -0.59138        3.54590       -1.74428
N         -1.74630        4.16241       -1.54815
C          0.72645        4.22142       -1.55288
N          1.72468        3.18351       -1.48701
C          3.07339        3.45516       -2.03557
H         -2.71138        1.30023       -2.81547
H         -3.77989        3.58492       -1.95038
H         -0.07577        1.55764       -2.59379
H          0.73320        4.76017       -0.58964
H          0.86282        4.94202       -2.38539
C          3.91164        4.18005       -0.99288
C          3.67416        2.10438       -2.30781
C          3.12952        4.20245       -3.39556
H          3.77325        3.67174       -0.03506
H          4.99261        4.14884       -1.25556
H          3.57137        5.22243       -0.86423
H          3.01040        1.52005       -2.98784
H          4.67519        2.20855       -2.76245
H          3.78251        1.59830       -1.35645
H          2.56630        3.65914       -4.18593
H          2.77826        5.24729       -3.32829
H          4.19053        4.26402       -3.73793
