68
speciation71.ct
Na         0.71745        0.37771       -1.06542
Mg         2.75514        1.29685       -3.72583
C         -2.06681        1.63378       -0.52712
C         -1.26292        0.51283        1.31087
O         -1.22246        0.56301       -0.11363
C         -2.19590        1.71268       -2.04082
C         -0.49079       -0.67873        1.85952
H         -3.10519        1.46405       -0.15265
H         -1.69841        2.61431       -0.14685
H         -0.86080        1.44596        1.76761
H         -2.31511        0.36039        1.65323
H          0.59425       -0.56144        1.66734
H         -0.65033       -0.73908        2.96051
H         -0.85747       -1.62294        1.40573
H         -2.54997        0.74506       -2.45230
H         -2.94684        2.49473       -2.29864
H         -1.22712        1.99224       -2.50036
C          3.28494        4.55628       -0.51303
C          2.09927        4.09509        0.00693
C          2.08653        2.73323       -0.18641
C          3.27020        2.41318       -0.82791
N          3.99689        3.54161       -1.03452
C          3.72507        1.00962       -1.16778
N          2.76583        0.29821       -2.04869
C          3.15799       -1.11418       -2.37871
H          1.33967        4.68627        0.49947
H          3.62851        5.58128       -0.49489
H          1.30802        2.06571        0.14234
H          3.82095        0.47833       -0.20195
H          4.72172        1.07974       -1.64859
C          3.18012       -1.99652       -1.11317
C          2.11721       -1.69336       -3.35666
C          4.54383       -1.22515       -3.07521
H          2.19633       -1.96656       -0.60170
H          3.41136       -3.05279       -1.37677
H          3.97076       -1.67531       -0.40608
H          2.10477       -1.11362       -4.30501
H          2.36097       -2.75062       -3.61365
H          1.10033       -1.67214       -2.91437
H          4.56603       -0.67319       -4.03855
H          5.37480       -0.87163       -2.43308
H          4.77003       -2.29377       -3.30291
Na         5.95603        3.99590       -1.77738
C          7.46065        3.08117       -4.57923
C          8.72234        2.52789       -4.72647
C          9.26243        2.41400       -3.46063
C          8.30460        2.91104       -2.60870
N          7.21852        3.30729       -3.27479
C          8.38809        3.14253       -1.13754
N          7.89503        4.50446       -0.86721
C          8.78173        5.65445       -1.24064
H          9.20454        2.25509       -5.65475
H          6.77337        3.32484       -5.37737
H         10.24142        2.04549       -3.18966
H          9.38367        2.92910       -0.70646
H          7.66163        2.45021       -0.65877
C          9.11625        5.73444       -2.74889
C          8.04610        6.95550       -0.87735
C         10.10191        5.60533       -0.44071
H          8.18956        5.75458       -3.35996
H          9.68999        6.65831       -2.97641
H          9.77500        4.90914       -3.07109
H          7.82028        6.99300        0.20860
H          8.67145        7.84253       -1.12991
H          7.09338        7.03436       -1.44327
H          9.89898        5.60385        0.65102
H         10.69598        4.70322       -0.69243
H         10.73848        6.48546       -0.67918
