83
speciation576.ct
Na         1.03972        0.05215       -0.07552
Mg         3.85487       -1.61723       -0.89614
C         -1.84889        0.65016        1.07268
C         -1.84752       -1.22869       -0.26740
O         -1.28028        0.05215       -0.07552
C         -1.24314        2.02661        1.29941
C         -1.23308       -1.89458       -1.48911
H         -2.94112        0.80427        0.91277
H         -1.68068        0.03143        1.98330
H         -1.68571       -1.88645        0.61670
H         -2.93842       -1.12722       -0.47245
H         -0.15156       -2.07959       -1.32254
H         -1.73978       -2.86672       -1.67294
H         -1.36489       -1.25041       -2.38427
H         -1.38169        2.66142        0.39876
H         -1.74753        2.51502        2.16104
H         -0.16137        1.93613        1.52336
C          5.48374       -1.00308       -3.40835
C          5.85673        0.20649       -3.95903
C          5.33197        1.19177       -3.14416
C          4.66579        0.53710       -2.13015
N          4.76640       -0.78538       -2.29220
C          3.91794        1.12956       -0.97138
N          3.40972        0.05215       -0.07552
C          3.78766        0.17621        1.34778
H          6.44283        0.34371       -4.85625
H          5.72846       -1.97681       -3.80826
H          5.42891        2.26209       -3.27618
H          3.06447        1.72261       -1.34960
H          4.61335        1.82285       -0.46149
C          3.31296        1.50616        1.97500
C          3.08247       -0.95712        2.11264
C          5.30891        0.05315        1.48027
H          2.21212        1.60743        1.88413
H          3.57869        1.53427        3.05502
H          3.78306        2.39007        1.50117
H          3.32579       -1.94302        1.69198
H          3.36750       -0.95324        3.18738
H          1.97869       -0.84543        2.04649
H          5.62286       -0.79348        0.85439
H          5.84550        0.93766        1.08491
H          5.61907       -0.07890        2.53907
Na         8.50385       -3.08028       -2.08653
C         10.73310       -4.41342       -3.89650
C         11.54399       -2.56132       -2.78302
O         10.40927       -3.12676       -3.40925
C          9.51762       -5.03114       -4.57228
C         11.20831       -1.18607       -2.22821
H         11.52301       -4.32891       -4.67819
H         11.07403       -5.09026       -3.08051
H         11.90978       -3.20112       -1.94763
H         12.35444       -2.41725       -3.53432
H         10.44193       -1.27055       -1.43044
H         12.12594       -0.73006       -1.79715
H         10.82956       -0.52730       -3.03782
H          9.14591       -4.36351       -5.37878
H          9.79998       -6.00751       -5.02202
H          8.70887       -5.19731       -3.83056
C          2.46625       -3.97329        0.15295
C          2.69551       -5.32851        0.27265
C          3.92853       -5.57178       -0.29518
C          4.40386       -4.35041       -0.73907
N          3.51199       -3.39664       -0.46488
C          5.72233       -4.06339       -1.41555
N          6.55736       -3.03279       -0.73530
C          7.06003       -3.43583        0.63490
H          2.03513       -6.04186        0.75169
H          1.59598       -3.43471        0.50787
H          4.42617       -6.53140       -0.36531
H          6.29266       -5.00136       -1.56638
H          5.48982       -3.68632       -2.43197
C          7.80376       -4.79043        0.61975
C          8.07144       -2.37398        1.11482
C          5.94897       -3.54539        1.71383
H          8.65468       -4.76725       -0.09064
H          8.19941       -5.01837        1.63518
H          7.12578       -5.62935        0.36113
H          7.63301       -1.36510        1.17913
H          8.44362       -2.62375        2.13528
H          8.93961       -2.31818        0.43191
H          5.34149       -2.64337        1.77818
H          5.27558       -4.40522        1.57099
H          6.38241       -3.70445        2.72234
