110
speciation2101.ct
Na        -0.24663        1.07549       -1.29057
Mg         2.59201        8.41545        0.11055
C         -1.02909       -0.65359        1.09327
C         -0.06286       -2.40631       -0.09204
O         -0.46081       -1.01162       -0.16841
C         -0.09108       -0.81517        2.31643
C          0.58936       -3.02813       -1.31982
H         -1.29377        0.41270        1.03229
H         -1.98461       -1.20064        1.27286
H          0.68334       -2.58779        0.71012
H         -0.96140       -3.04111        0.12070
H          1.57077       -2.57290       -1.54262
H          0.79983       -4.10401       -1.09417
H         -0.07470       -2.98529       -2.19972
H          0.89490       -0.35309        2.12945
H         -0.54511       -0.33877        3.20879
H          0.06132       -1.88243        2.59726
H          3.97668        6.24896        0.94611
C          5.54890        7.66013        1.41766
C          4.40372        7.17164        0.49952
C          6.65695        6.58939        1.54077
H          5.98457        8.60517        1.02993
H          5.13276        7.85278        2.42508
H          6.19662        5.64507        1.89781
H          7.12489        6.40261        0.54823
C          7.76106        6.96641        2.53611
H          4.84872        6.88360       -0.47224
H          8.35616        7.83336        2.17883
H          7.32845        7.20296        3.53123
H          8.45098        6.10204        2.66149
C         -0.84111        3.73997       -4.35717
C         -0.08438        4.37383       -5.29021
C          0.63284        5.34662       -4.66016
C          0.30479        5.36633       -3.30906
N         -0.57033        4.15922       -3.09001
C          1.27783        6.56337       -2.60465
N          1.24708        7.22946       -1.21851
C         -0.22201        7.28068       -0.76789
H          0.05227        4.11128       -6.34026
H         -1.35049        2.80456       -4.57730
H          1.40157        5.95841       -5.13425
H          1.10986        7.43174       -3.27888
H          2.33941        6.32830       -2.82488
C         -0.85067        5.89358       -0.47297
C         -0.36302        7.99248        0.55426
C         -1.15129        8.01593       -1.77267
H         -0.20651        5.27523        0.17347
H         -1.84150        5.98815        0.02427
H         -1.15396        5.36839       -1.35230
H         -0.03850        9.03644        0.42585
H         -1.42338        8.02371        0.90062
H          0.17219        7.39795        1.31524
H         -0.84683        9.05553       -1.93396
H         -1.19439        7.51534       -2.75756
H         -2.19475        8.04629       -1.38561
Na         1.99952        4.98208       -1.22191
Mg         3.90961        2.41381       -2.76772
C          2.16503       11.30217       -0.42171
C          3.73811       10.29833       -1.84370
O          3.03821       10.18960       -0.62008
C          1.09043       11.47553       -1.49728
C          4.67380        9.12945       -2.01154
H          1.65095       11.16320        0.54978
H          2.74632       12.24582       -0.31507
H          3.05272       10.26628       -2.71487
H          4.35710       11.22478       -1.85067
H          4.06863        8.20151       -2.04195
H          5.22643        9.21952       -2.96743
H          5.40538        9.11206       -1.17952
H          0.56447       10.52571       -1.61307
H          0.36866       12.26496       -1.20021
H          1.51857       11.77736       -2.47549
H          0.94551        9.51453        2.17166
C          2.71700        9.72320        3.22678
C          1.87084        8.90992        2.25740
C          1.93753       10.04057        4.52255
H          3.63219        9.15397        3.47250
H          2.99243       10.67955        2.73426
H          1.02364       10.63211        4.28357
H          1.61634        9.10280        5.02936
C          2.79596       10.85157        5.48604
H          1.62154        7.95760        2.77403
H          3.68829       10.26165        5.78384
H          3.12351       11.79562        5.00118
H          2.21321       11.10415        6.39773
C          3.17922       -0.96761        0.41342
C          4.55467       -0.81646        0.63640
C          4.81748        0.51574        0.57231
C          3.61824        1.12150        0.31077
N          2.56301        0.23544        0.18689
C          3.52309        2.55964        0.00041
N          2.75196        2.73470       -1.22530
C          1.64038        1.97557       -1.38266
H          5.30961       -1.58787        0.75209
H          2.74332       -1.92819        0.27229
H          5.79976        0.99011        0.63574
H          3.05821        3.07859        0.85458
H          4.52527        3.04766       -0.11627
C          0.79786        2.36164        0.03955
C          1.15040        2.60042       -2.52181
C          1.87257        0.52943       -2.14898
H          0.94000        3.43062        0.26784
H         -0.30600        2.31262        0.15024
H          1.14586        1.84886        0.95579
H          1.83891        2.69706       -3.40103
H          0.22398        2.11747       -2.89252
H          0.99615        3.52550       -2.02132
H          2.90334        0.43936       -2.55757
H          1.55020       -0.37776       -1.62279
H          1.20318        0.28793       -3.01099
