81
speciation421.ct
Na         2.35672        0.22278        1.07700
Mg         0.51482        1.61817       -0.47856
C          0.33789        1.29251        3.17293
C          1.55390       -0.56785        3.95213
O          1.16456        0.20424        2.82114
C          1.06471        2.35695        3.98902
C          2.38163       -1.77623        3.53909
H         -0.00647        1.75422        2.22869
H         -0.58879        0.94511        3.68647
H          2.19912        0.02477        4.63243
H          0.66084       -0.95506        4.49546
H          3.28163       -1.45519        2.97513
H          2.70572       -2.33699        4.44289
H          1.78085       -2.46721        2.92822
H          2.01902        2.62255        3.49343
H          0.42290        3.25736        4.06748
H          1.27196        1.99541        5.01684
H          0.57242        4.14410       -1.21130
C         -1.56782        3.89439       -1.08378
C         -0.18078        3.36003       -1.44012
C         -1.89157        5.17230       -1.86949
H         -2.32339        3.12311       -1.33540
H         -1.60319        4.11256        0.00667
H         -1.14607        5.95966       -1.62449
H         -1.84490        4.96336       -2.96067
C         -3.28743        5.69299       -1.53180
H         -0.14296        3.11711       -2.52068
H         -4.05816        4.94248       -1.80976
H         -3.36796        5.91333       -0.44611
H         -3.48406        6.62780       -2.09865
C          5.34116        1.29238        2.34621
C          5.88207        2.56764        2.24216
C          4.98005        3.32966        1.54128
C          3.93850        2.47425        1.23965
N          4.14747        1.23649        1.69645
C          2.70414        2.83986        0.46296
N          2.46616        1.85617       -0.61041
C          3.39583        2.08238       -1.84019
H          6.82234        2.92250        2.63538
H          5.80323        0.46205        2.84854
H          5.05721        4.37724        1.26938
H          2.70286        3.88637        0.11297
H          1.85311        2.75399        1.14943
C          4.90860        1.91663       -1.52075
C          3.11331        1.13086       -3.02622
C          3.19982        3.47811       -2.48542
H          5.17119        0.93178       -1.09218
H          5.52577        2.01387       -2.44327
H          5.30083        2.70502       -0.86840
H          2.09307        1.25136       -3.44431
H          3.83485        1.30306       -3.86126
H          3.30806        0.10179       -2.79733
H          2.17307        3.59041       -2.88107
H          3.44274        4.31440       -1.81067
H          3.88758        3.58978       -3.35388
Mg         2.63624       -3.22177        1.18003
C         -2.00773        0.70268        0.46211
C         -2.86452       -0.28999        0.86648
C         -2.13017       -1.44317        0.88459
C         -0.83904       -1.11120        0.50399
N         -0.77267        0.21819        0.20441
C          0.23204       -2.19005        0.48308
N          1.65206       -1.79351        0.27706
C          2.12022       -1.87075       -1.10261
H         -3.91129       -0.18268        1.12263
H         -2.28922        1.73391        0.36284
H         -2.49394       -2.42440        1.16038
H          0.17999       -2.66807        1.47848
H         -0.08997       -2.98525       -0.21302
C          1.20216       -0.97080       -1.97237
C          3.60630       -1.48625       -0.99658
C          2.10136       -3.28603       -1.71334
H          1.16742        0.05040       -1.56701
H          1.46753       -0.96497       -3.04179
H          0.15231       -1.32901       -1.96066
H          4.12736       -2.17322       -0.29371
H          4.16141       -1.56576       -1.94893
H          3.69766       -0.48340       -0.55062
H          2.74386       -3.97902       -1.13374
H          1.09017       -3.71618       -1.81249
H          2.51243       -3.22062       -2.74820
