110
speciation2020.ct
Na        -4.29709        5.54607       -3.93014
Mg        -1.31937        0.73375        0.85986
C         -6.51862        3.66539       -2.83272
C         -7.63311        5.41163       -3.98299
O         -6.44726        4.58744       -3.91582
C         -6.55350        2.21036       -3.30756
C         -8.75109        4.90848       -4.94867
H         -5.61754        3.81792       -2.21508
H         -7.38331        3.81308       -2.14603
H         -8.11911        5.62223       -2.99964
H         -7.32159        6.41070       -4.33067
H         -9.59234        4.43238       -4.39273
H         -9.22201        5.77998       -5.46375
H         -8.40007        4.20402       -5.73077
H         -5.67160        1.97412       -3.93796
H         -6.53304        1.54041       -2.41823
H         -7.48393        1.99268       -3.87528
H         -0.47324       -0.87959        3.32510
C         -2.50579       -1.43514        3.82616
C         -1.48253       -0.44977        3.15129
C         -2.47284       -2.85683        3.22125
H         -2.25779       -1.52312        4.91299
H         -3.53370       -1.01432        3.76635
H         -2.76397       -2.77354        2.17145
H         -1.43309       -3.24477        3.30468
C         -3.39378       -3.88308        3.91391
H         -1.50211        0.41260        3.85927
H         -3.08486       -4.09492        4.96089
H         -4.45704       -3.56465        3.90785
H         -3.32610       -4.84130        3.35220
C         -1.43326        6.60962       -2.24878
C         -0.43286        6.30213       -1.33365
C         -0.66467        5.02779       -0.88541
C         -1.85992        4.63659       -1.49312
N         -2.35441        5.59413       -2.35105
C         -2.42845        3.24826       -1.36640
N         -2.32012        2.47518       -0.06433
C         -3.09199        2.97400        1.07059
H          0.47116        6.89488       -1.09487
H         -1.46663        7.54103       -2.79235
H         -0.03772        4.43885       -0.21320
H         -3.42823        3.21238       -1.80682
H         -1.78918        2.79217       -2.12840
C         -4.51349        3.33897        0.65358
C         -3.15356        1.82415        2.06706
C         -2.32480        4.11024        1.75384
H         -4.98980        2.47603        0.13380
H         -5.11474        3.59660        1.54573
H         -4.50687        4.21044       -0.03186
H         -2.11516        1.69489        2.37221
H         -3.74905        2.07151        2.96545
H         -3.54715        0.87258        1.65789
H         -1.28109        3.77574        1.97440
H         -2.27514        5.01164        1.12306
H         -2.81137        4.37241        2.71203
Na        -3.31207        0.70781       -0.40865
Mg         1.33187       -1.02315        0.34529
C         -4.72934        7.86299       -6.04652
C         -2.75799        6.63051       -6.38920
O         -4.10673        6.57285       -5.92327
C         -5.17108        8.17945       -7.48801
C         -2.58740        6.10766       -7.83126
H         -5.64206        7.86856       -5.41879
H         -4.08864        8.69213       -5.66494
H         -2.30555        7.64606       -6.31515
H         -2.12561        6.01520       -5.71914
H         -1.91504        6.78985       -8.40073
H         -3.54571        6.04488       -8.38547
H         -2.10445        5.10599       -7.83542
H         -5.81877        7.37660       -7.88824
H         -5.74887        9.13583       -7.51185
H         -4.29988        8.32124       -8.16372
H          2.79415       -1.95411        2.27159
C          4.34957       -0.81564        1.19374
C          3.04398       -1.70804        1.21776
C          5.21806       -0.39221       -0.06381
H          4.13833        0.11022        1.76181
H          5.07832       -1.41578        1.77975
H          6.11463        0.09471        0.38736
H          5.60309       -1.26645       -0.63255
C          4.72981        0.66774       -1.07055
H          3.24981       -2.65311        0.67318
H          4.03391        0.25387       -1.81680
H          4.30291        1.56292       -0.57394
H          5.61074        1.03210       -1.66119
C         -4.51172       -2.08925       -0.32398
C         -4.14574       -3.43518       -0.41903
C         -2.77404       -3.43604       -0.56098
C         -2.34801       -2.11084       -0.54729
N         -3.40999       -1.31768       -0.40298
C         -0.86650       -1.76101       -0.72151
N         -0.33827       -0.35506       -0.50580
C         -0.07300        0.36395       -1.76751
H         -4.79161       -4.30301       -0.38146
H         -5.54779       -1.75798       -0.22839
H         -2.15279       -4.31763       -0.67954
H         -0.30682       -2.41517       -0.04873
H         -0.64535       -2.14708       -1.72733
C         -1.37351        0.42380       -2.62589
C          0.51119        1.72714       -1.33796
C          1.00228       -0.31222       -2.65616
H         -2.23229        0.81813       -2.10073
H         -1.22923        1.01417       -3.55365
H         -1.73375       -0.57763       -2.93089
H          1.53902        1.58948       -0.93407
H          0.55730        2.46293       -2.16429
H         -0.02960        2.14801       -0.47626
H          1.98226       -0.30974       -2.15636
H          0.79493       -1.35921       -2.93135
H          1.08817        0.23673       -3.61951
