81
speciation782.ct
Na         1.49476        0.69068        0.62826
Mg         4.27166       -1.42115       -0.50152
C          6.68142       -1.96475        1.43986
C          6.68913       -3.66865       -0.12895
O          5.85118       -2.65116        0.48903
C          7.90183       -1.20893        0.84998
C          7.13155       -4.79498        0.83808
H          6.05800       -1.31290        2.02477
H          7.00040       -2.60104        2.28680
H          6.23786       -4.19684       -0.97339
H          7.56862       -3.22388       -0.62782
H          6.25178       -5.35636        1.21528
H          7.80799       -5.49439        0.30459
H          7.72404       -4.44621        1.70686
H          7.62449       -0.61664       -0.04682
H          8.32603       -0.52632        1.61660
H          8.72010       -1.89723        0.56005
H         -0.51387       -3.77100        1.75093
C          1.14797       -3.87685        3.12334
C          0.53250       -4.14453        1.75982
C          0.37483       -4.64122        4.20367
H          2.21095       -4.19752        3.11552
H          1.10465       -2.78384        3.32201
H         -0.69622       -4.34210        4.18860
H          0.44213       -5.73159        3.99782
C          0.93392       -4.36290        5.59201
H          0.53247       -5.22960        1.52160
H          2.00746       -4.64332        5.63837
H          0.82136       -3.28614        5.84173
H          0.37353       -4.96250        6.33993
C          5.93138       -0.64772       -2.97305
C          6.09160        0.57605       -3.59148
C          5.36761        1.49172       -2.86207
C          4.80268        0.79383       -1.81425
N          5.14254       -0.50310       -1.88879
C          3.92044        1.37956       -0.73161
N          3.60362        0.38792        0.33565
C          4.08731        0.73893        1.69164
H          6.65693        0.77141       -4.49891
H          6.35044       -1.58469       -3.30917
H          5.26715        2.55086       -3.06397
H          2.98033        1.72689       -1.20375
H          4.41923        2.28099       -0.33212
C          3.40780        1.99542        2.28276
C          3.70048       -0.45687        2.59257
C          5.59524        1.04568        1.66539
H          2.30705        1.89313        2.32920
H          3.77810        2.16725        3.31843
H          3.64648        2.90544        1.69425
H          3.96894       -1.43269        2.14233
H          4.15358       -0.36977        3.60284
H          2.59550       -0.49947        2.71472
H          6.04823        0.42965        0.89724
H          5.82953        2.06674        1.30710
H          6.06240        0.93663        2.66835
Mg         1.47986       -3.20869        0.21440
C         -1.60373       -2.07240       -3.60802
C         -1.90807       -2.44945       -2.32100
C         -0.79813       -2.17785       -1.53387
C          0.15497       -1.65319       -2.31504
N         -0.29921       -1.54949       -3.65210
C          1.54887       -1.22830       -1.88097
N          2.40400       -2.29578       -1.29314
C          2.64890       -3.47766       -2.19013
H         -2.84731       -2.88859       -2.00145
H         -2.26138       -2.16304       -4.46464
H         -0.71482       -2.37276       -0.47654
H          1.40621       -0.44237       -1.13372
H          2.07523       -0.75541       -2.73603
C          3.32872       -3.07277       -3.51417
C          3.57384       -4.38413       -1.41702
C          1.40951       -4.35624       -2.50577
H          4.28509       -2.57435       -3.31214
H          3.55071       -3.96827       -4.13444
H          2.68802       -2.40291       -4.12241
H          3.10901       -4.76144       -0.48136
H          3.94029       -5.24367       -2.02339
H          4.36539       -3.71559       -1.13622
H          0.91750       -4.70575       -1.57289
H          0.67051       -3.88423       -3.16666
H          1.72717       -5.25985       -3.07445
