110
speciation2029.ct
Na         0.47982        1.38294       -0.33094
Mg        -5.81023        2.04228        2.33370
C          2.07506        2.02570       -3.17541
C         -0.02667        3.09979       -3.10320
O          0.76910        2.01808       -2.58105
C          2.83904        3.36879       -3.16451
C         -0.44457        2.92786       -4.57820
H          2.69594        1.29501       -2.63821
H          2.02655        1.64110       -4.21946
H         -0.95545        3.18933       -2.51587
H          0.45427        4.08437       -2.97895
H         -1.08382        2.03216       -4.71665
H         -1.02524        3.82123       -4.90036
H          0.42998        2.85921       -5.25772
H          2.87999        3.78150       -2.14096
H          3.87316        3.21919       -3.53760
H          2.38520        4.12138       -3.84480
H         -7.64511        3.65799        3.28352
C         -7.62091        4.13711        1.16521
C         -6.90011        3.80145        2.46974
C         -8.42313        5.44051        1.28186
H         -6.86232        4.24155        0.36078
H         -8.30292        3.29680        0.90655
H         -9.18481        5.35117        2.08816
H         -7.73709        6.27821        1.53220
C         -9.13551        5.76749       -0.02941
H         -6.20773        4.61967        2.75329
H         -8.40006        5.85807       -0.85538
H         -9.86163        4.96747       -0.28267
H         -9.68317        6.73093        0.06391
C         -5.35655       -0.73748        2.75640
C         -4.50167       -1.81254        2.75221
C         -3.28250       -1.34409        2.31376
C         -3.44470        0.01140        2.04674
N         -4.72622        0.37262        2.32978
C         -2.38667        0.96678        1.50727
N         -1.75223        0.60122        0.17643
C         -2.72849        0.57385       -0.95816
H         -4.74673       -2.82796        3.03627
H         -6.39974       -0.76492        3.04999
H         -2.40275       -1.95336        2.19869
H         -1.66047        1.09870        2.30258
H         -2.82153        1.98218        1.45534
C         -3.44573        1.93480       -1.10993
C         -1.95578        0.26787       -2.23154
C         -3.78814       -0.55287       -0.85193
H         -2.70609        2.75649       -1.18825
H         -4.09289        1.94097       -2.01006
H         -4.10855        2.15382       -0.24754
H         -1.34262       -0.63681       -2.11122
H         -2.62866        0.16294       -3.10889
H         -1.27392        1.06330       -2.43976
H         -3.30830       -1.54370       -0.74528
H         -4.52335       -0.41593       -0.05046
H         -4.41864       -0.56993       -1.76499
Na         6.17559       -1.41953        1.36517
Mg        -0.33940       -0.94585       -0.13618
C          0.06817        3.99187        1.03076
C          2.39303        3.71113        0.83184
O          1.12039        3.06768        0.80338
C         -0.03843        5.14015        0.01828
C          3.53944        2.74539        0.58481
H         -0.87614        3.41700        0.97134
H          0.12420        4.38962        2.06671
H          2.48998        4.48841        0.04819
H          2.56211        4.15925        1.83767
H          3.46062        2.28911       -0.42019
H          4.50578        3.29021        0.65814
H          3.55818        1.95941        1.34526
H         -0.11071        4.74059       -0.99941
H         -0.95477        5.72967        0.22203
H          0.81853        5.84103        0.07786
H         -0.12284       -3.67197       -0.33881
C         -1.08300       -3.29020       -2.23931
C         -0.90701       -2.99730       -0.73634
C         -1.45453       -4.75654       -2.52060
H         -1.89206       -2.65594       -2.65289
H         -0.13094       -3.05030       -2.75940
H         -0.66101       -5.42952       -2.13061
H         -2.41433       -5.00647       -2.01744
C         -1.61450       -5.00720       -4.02332
H         -1.84746       -3.24073       -0.19935
H         -2.42941       -4.37667       -4.43994
H         -0.66928       -4.77580       -4.55945
H         -1.86933       -6.07327       -4.20624
C          4.83072       -3.80612        0.03258
C          3.75232       -4.28579       -0.67626
C          2.90229       -3.21669       -0.87413
C          3.49144       -2.12521       -0.26431
N          4.68094       -2.49067        0.28026
C          2.93044       -0.71703       -0.22115
N          1.61367       -0.54465        0.46338
C          1.61349       -0.91005        1.92997
H          3.61149       -5.30623       -1.01166
H          5.68620       -4.38798        0.35262
H          1.96323       -3.23934       -1.39947
H          2.82862       -0.37600       -1.26379
H          3.68757       -0.06151        0.25377
C          2.67284       -0.17040        2.78766
C          0.28065       -0.49918        2.49461
C          1.73962       -2.43185        2.16589
H          2.47343        0.91983        2.81292
H          2.59911       -0.50199        3.84823
H          3.71075       -0.36405        2.45978
H         -0.51932       -0.97201        1.90621
H          0.15274       -0.79081        3.56043
H          0.25864        0.60179        2.42728
H          0.98774       -2.98342        1.56938
H          2.74695       -2.81896        1.95569
H          1.57147       -2.67418        3.23752
