66
speciation172.ct
Na         6.65973        3.20196        1.93711
Mg         2.18980        2.07086        3.75780
H          3.90848        3.93832        2.43764
C          1.95630        4.39582        1.69544
C          2.99235        3.38359        2.13354
C          0.73459        3.64212        1.18214
H          1.69510        5.02662        2.57064
H          2.36753        5.04991        0.89049
H          1.01068        3.06413        0.27067
H          0.39137        2.93314        1.96562
C         -0.40347        4.59316        0.85373
H          3.27071        2.77424        1.24702
H         -0.69261        5.15786        1.76552
H         -0.10069        5.30462        0.05687
H         -1.27624        4.00348        0.50495
C          2.35357       -0.78283        3.94682
C          3.13395       -1.91020        3.81275
C          4.31937       -1.49172        3.26284
C          4.20505       -0.12664        3.08244
N          3.01679        0.30706        3.53532
C          5.24435        0.74556        2.45801
N          5.61503        1.90436        3.28496
C          6.46241        1.69246        4.47124
H          2.86293       -2.91404        4.10242
H          1.35608       -0.76061        4.32742
H          5.16539       -2.11359        3.00956
H          4.79205        1.13253        1.52760
H          6.13091        0.16711        2.13574
C          7.75465        0.92668        4.14217
C          6.83220        3.09447        4.98598
C          5.67002        0.96574        5.57740
H          8.32663        1.45077        3.34619
H          8.39401        0.84753        5.04709
H          7.53959       -0.10869        3.80567
H          5.91710        3.68359        5.21332
H          7.44972        3.02935        5.90715
H          7.41268        3.64894        4.21794
H          4.69992        1.47811        5.75615
H          5.47256       -0.08928        5.31058
H          6.24238        0.95355        6.52759
Mg         4.04876        2.74940        4.07190
C          1.45418        3.77621        6.00565
C          0.77248        3.99769        7.18725
C          0.08156        2.84966        7.46508
C          0.37787        1.95549        6.45300
N          1.21940        2.52961        5.53469
C         -0.23103        0.56654        6.43997
N          0.74395       -0.53650        6.53083
C          1.41580       -0.85966        7.80734
H          0.77547        4.90065        7.78247
H          2.09319        4.49274        5.51732
H         -0.56046        2.67410        8.32114
H         -0.98421        0.46223        7.24736
H         -0.79705        0.45645        5.49191
C          0.42717       -1.03519        8.98057
C          2.14446       -2.20196        7.59703
C          2.46897        0.20568        8.14100
H         -0.31880       -1.82809        8.74874
H          0.97614       -1.34459        9.89907
H         -0.10474       -0.09496        9.21873
H          2.86542       -2.13032        6.75504
H          2.70701       -2.50068        8.50868
H          1.41994       -3.01226        7.35861
H          3.17485        0.31396        7.29091
H          2.00267        1.18480        8.34889
H          3.04456       -0.08419        9.04595
