110
speciation1938.ct
Na         0.70269        0.35582        0.03972
Mg         0.76343       -3.79375        0.54508
C         -1.26493        2.90477       -0.97053
C          0.05264        2.07545       -2.71335
O         -0.15135        2.06294       -1.30249
C         -2.62349        2.54096       -1.61243
C          0.55524        3.40411       -3.32031
H         -1.34244        2.94727        0.12644
H         -1.04354        3.96607       -1.19189
H          0.79804        1.33112       -2.95148
H         -0.83403        1.69651       -3.25590
H          1.65926        3.46944       -3.27355
H          0.24747        3.44344       -4.38881
H          0.14896        4.31749       -2.85450
H         -2.93042        1.51148       -1.35151
H         -3.39809        3.25821       -1.26998
H         -2.61260        2.65354       -2.71815
H          2.47009       -6.06465       -0.03157
C          3.90676       -4.63538       -0.79166
C          2.45485       -5.10262       -0.57763
C          4.64515       -4.38163        0.51844
H          4.46586       -5.40215       -1.37533
H          3.93678       -3.71494       -1.40649
H          5.66076       -4.00642        0.26723
H          4.11907       -3.60441        1.11066
C          4.79492       -5.66250        1.33808
H          2.12970       -5.39158       -1.59912
H          3.81017       -6.02420        1.69708
H          5.27205       -6.45479        0.72026
H          5.42766       -5.46607        2.22493
C         -1.20022       -6.05694        0.85599
C         -2.56680       -6.07328        0.68463
C         -2.93624       -4.78678        0.29475
C         -1.77068       -4.04188        0.23414
N         -0.74862       -4.81087        0.57916
C         -1.63054       -2.55572       -0.14801
N         -0.19016       -2.10953       -0.26656
C          0.32429       -2.33058       -1.61767
H         -3.21374       -6.92861        0.83836
H         -0.57521       -6.88291        1.17045
H         -3.94339       -4.45517        0.08275
H         -2.16873       -1.99989        0.62779
H         -2.18276       -2.36790       -1.08739
C         -0.18796       -1.26484       -2.57439
C          1.78455       -2.14397       -1.39564
C          0.07597       -3.71055       -2.25069
H         -0.17985       -0.31561       -2.03173
H          0.43715       -1.21570       -3.49020
H         -1.23516       -1.45287       -2.87707
H          2.16019       -2.71483       -0.53576
H          2.34693       -2.35064       -2.32472
H          1.88488       -1.12205       -1.05093
H          0.26115       -4.52156       -1.55608
H         -0.97113       -3.82558       -2.58006
H          0.73494       -3.84230       -3.13720
Na         3.79661       -1.08926        0.87586
Mg         6.54971        2.35671       -2.25564
C         -1.35213        0.35320        2.48812
C          0.17027        2.05239        3.02572
O         -0.03093        0.86011        2.23920
C         -2.53411        1.29822        2.19530
C          0.15228        1.83128        4.55468
H         -1.47787       -0.52944        1.86671
H         -1.45205       -0.04564        3.52011
H          1.15518        2.48538        2.87359
H         -0.52152        2.86106        2.72537
H          0.96362        1.13708        4.86259
H          0.32318        2.80696        5.06013
H         -0.81627        1.45320        4.93736
H         -2.52706        1.59981        1.14388
H         -3.49775        0.77520        2.36080
H         -2.54833        2.18840        2.85935
H          1.52072       -4.47427        2.92071
C          0.36032       -2.77782        3.63045
C          1.24151       -3.46143        2.56723
C         -1.01793       -3.41208        3.89737
H          0.92985       -2.75348        4.58601
H          0.19495       -1.73043        3.31922
H         -1.52451       -2.80706        4.68430
H         -1.64452       -3.36487        2.98460
C         -0.94851       -4.85438        4.39451
H          2.16006       -2.84936        2.46234
H         -0.50188       -5.51152        3.62294
H         -0.35133       -4.91796        5.32857
H         -1.97620       -5.22073        4.60864
C          4.53252        2.48445       -4.37106
C          3.36890        1.90559       -4.82267
C          3.05076        0.91415       -3.91981
C          3.99588        0.96983       -2.91694
N          4.93080        1.88896       -3.23145
C          4.05190        0.08491       -1.69517
N          3.29695        0.51164       -0.45309
C          3.97129        1.66358        0.22598
H          2.81929        2.17125       -5.71637
H          5.06541        3.29392       -4.85130
H          2.21837        0.23545       -3.99236
H          5.10350       -0.16915       -1.47605
H          3.79077       -0.90851       -2.03023
C          3.65811        3.01364       -0.47132
C          3.38318        1.75546        1.61374
C          5.50550        1.47486        0.41132
H          2.56477        3.16723       -0.55344
H          4.10358        3.85330        0.10218
H          4.08370        3.10566       -1.46958
H          3.56472        0.83703        2.20966
H          3.79029        2.62991        2.17378
H          2.31750        1.86008        1.42225
H          5.71787        0.54931        0.99337
H          6.06987        1.41610       -0.53442
H          5.95192        2.33099        0.95791
