110
speciation2494.ct
Na         0.91485        0.02393        0.04666
Mg         6.09164        3.55632        0.91313
C         -1.95450       -1.00504       -0.75635
C         -1.96634        1.26181       -0.35081
O         -1.40515        0.02393        0.04666
C         -1.36434       -2.35457       -0.37602
C         -1.40424        2.39856        0.48917
H         -3.05154       -1.07590       -0.57281
H         -1.76242       -0.82775       -1.83939
H         -1.76241        1.47894       -1.42425
H         -3.06642        1.24842       -0.17002
H         -0.31658        2.51384        0.30543
H         -1.91666        3.34572        0.21158
H         -1.57932        2.20405        1.56816
H         -1.52019       -2.55438        0.70486
H         -1.86961       -3.15313       -0.96193
H         -0.28048       -2.38022       -0.60508
H          6.18061        5.05786       -1.20085
C          7.04147        6.35907        0.32283
C          6.06302        5.28019       -0.12168
C          8.50193        5.95905        0.09012
H          6.82621        7.27326       -0.27109
H          6.88084        6.59399        1.39736
H          8.66431        5.73034       -0.98618
H          9.14629        6.82204        0.36338
C          8.91927        4.76050        0.93777
H          5.02468        5.62198        0.07065
H          8.76539        4.97983        2.01600
H          8.33329        3.86509        0.65626
H          9.99379        4.54124        0.76706
C          4.98743        3.77950        3.26480
C          4.07534        3.31156        4.16439
C          3.36051        2.26879        3.53521
C          3.89813        2.10710        2.22572
N          4.85774        3.07991        2.14900
C          3.71256        1.13781        0.99536
N          3.28485        0.02393        0.04666
C          3.36069       -1.39704        0.48012
H          4.00145        3.70631        5.17231
H          5.73871        4.55188        3.40956
H          2.59049        1.70646        4.02041
H          4.74674        0.86699        1.01139
H          3.47750        1.97653        0.31826
C          2.33992       -1.72163        1.59772
C          3.00704       -2.23907       -0.76346
C          4.72767       -1.79153        1.04658
H          1.28830       -1.55484        1.31537
H          2.40388       -2.80071        1.86370
H          2.55967       -1.13008        2.51106
H          3.73157       -2.08342       -1.58018
H          2.96382       -3.32403       -0.53204
H          2.02306       -1.92620       -1.17400
H          5.52095       -1.48019        0.38837
H          4.91579       -1.29922        2.02240
H          4.78783       -2.89291        1.19779
Na         6.27305        1.95521       -4.10737
Mg         4.03509        0.75277       -1.56513
C          7.91718        2.48831       -6.62349
C          6.51014        4.33346       -6.07738
O          6.63366        2.92139       -6.18556
C          9.11689        3.04544       -5.84104
C          6.53285        5.04192       -7.43751
H          7.93367        1.38465       -6.50344
H          8.04072        2.66699       -7.71247
H          5.52721        4.55559       -5.61187
H          7.26612        4.76634       -5.39217
H          5.68033        4.70449       -8.06350
H          6.44861        6.13861       -7.28226
H          7.48145        4.85602       -7.98140
H          8.99182        2.86871       -4.75401
H         10.04383        2.53920       -6.18309
H          9.25645        4.13024       -6.02577
H          3.26041        1.81033       -3.92241
C          1.64606        2.55367       -2.67105
C          2.66615        1.46839       -3.04797
C          2.30331        3.88414       -2.28282
H          0.97758        2.73337       -3.54425
H          1.02660        2.18367       -1.82753
H          2.98015        3.72993       -1.41676
H          2.89753        4.27625       -3.13781
C          1.24391        4.92394       -1.90473
H          2.10024        0.56343       -3.35397
H          0.56372        5.12134       -2.76174
H          0.64043        4.56603       -1.04344
H          1.73291        5.87925       -1.61815
C          7.05827        1.31698        2.70914
C          7.48755        0.04119        2.52623
C          7.55502       -0.14988        1.16640
C          7.07969        1.03263        0.52435
N          6.82910        1.89963        1.50923
C          6.82163        1.57822       -0.94122
N          5.90467        0.96821       -1.98440
C          6.60460       -0.22925       -2.67444
H          7.71301       -0.67931        3.29799
H          6.88191        1.78553        3.66579
H          7.88755       -1.11272        0.84158
H          7.81142        1.82138       -1.35180
H          6.41707        2.59437       -0.80406
C          6.77649       -1.48735       -1.82897
C          5.80170       -0.71992       -3.89690
C          8.06350        0.09748       -3.15702
H          5.83329       -1.95719       -1.55362
H          7.34099       -2.28463       -2.36045
H          7.42223       -1.25735       -1.02316
H          5.70633        0.02656       -4.69916
H          6.32040       -1.59667       -4.35724
H          4.79271       -1.06051       -3.58862
H          8.11623        0.94442       -3.85450
H          8.76996        0.27962       -2.31819
H          8.51454       -0.77475       -3.67894
