53
speciation831.ct
Na         1.09145        0.02249        0.03362
C         -0.81251       -0.93655       -4.47701
C         -0.21710        0.22539       -4.04191
C         -0.45008        0.32879       -2.68252
C         -1.17332       -0.72899       -2.30247
N         -1.43758       -1.57897       -3.39787
C         -1.67874       -1.02605       -0.91848
N         -1.27855        0.02249        0.03362
C         -1.79528       -0.13041        1.41558
H          0.34153        0.91783       -4.65658
H         -0.80014       -1.30990       -5.49192
H         -0.10349        1.13117       -2.04516
H         -1.26609       -2.00818       -0.61280
H         -2.78120       -1.08564       -0.99822
C         -1.26713       -1.42186        2.07433
C         -1.29074        1.06995        2.23082
C         -3.34163       -0.11878        1.45186
H         -0.15697       -1.43772        2.05956
H         -1.60885       -1.48430        3.13094
H         -1.64579       -2.32651        1.55696
H         -1.66295        2.02280        1.79344
H         -1.64857        1.01334        3.28267
H         -0.18116        1.10124        2.23857
H         -3.73837        0.80852        0.98476
H         -3.77932       -0.99410        0.92998
H         -3.70724       -0.16397        2.50023
Na        -2.02846        1.87971       -0.72254
Mg         4.14117       -1.79548       -0.17604
C          3.04162       -0.25726       -4.56601
C          2.45532       -1.27049       -3.84301
C          2.68013       -1.00738       -2.50247
C          3.38884        0.12309       -2.41270
N          3.65375        0.65541       -3.69403
C          3.87583        0.78301       -1.15457
N          3.46145        0.02249        0.03362
C          3.95116        0.53490        1.33594
H          1.90663       -2.10508       -4.25272
H          3.03143       -0.16488       -5.64362
H          2.33899       -1.61525       -1.67544
H          3.45632        1.80855       -1.12544
H          4.97951        0.82620       -1.23113
C          3.41239        1.95224        1.62005
C          3.42723       -0.41489        2.42607
C          5.49592        0.53828        1.40603
H          2.30287        1.96083        1.57682
H          3.72789        2.29113        2.63079
H          3.80374        2.69276        0.89257
H          3.80441       -1.44675        2.25611
H          3.76296       -0.08456        3.43359
H          2.31739       -0.44376        2.41861
H          5.89851       -0.47943        1.21414
H          5.94509        1.24314        0.67754
H          5.83819        0.86383        2.41310
