68
speciation17.ct
Na         1.20959        0.12810       -0.28928
Mg         0.80920        3.05638       -1.73875
C         -1.12042       -1.41524        1.03243
C          0.32238       -2.92519       -0.01852
O         -0.05302       -1.56596        0.11552
C         -0.70989       -1.67377        2.47914
C          1.33568       -3.07858       -1.12477
H         -1.47370       -0.37459        0.96375
H         -1.99735       -2.04179        0.74112
H          0.79630       -3.30227        0.91263
H         -0.55208       -3.55906       -0.29949
H          2.19829       -2.46672       -0.85305
H          1.65795       -4.13909       -1.20532
H          0.92497       -2.73495       -2.09638
H          0.16674       -1.04453        2.73715
H         -1.55455       -1.42202        3.15232
H         -0.46066       -2.74178        2.64250
C         -1.56320        0.23159       -3.91224
C         -2.40622       -0.54425       -3.14702
C         -2.41847       -0.00565       -1.87735
C         -1.61296        1.05765       -1.86579
N         -1.02729        1.26997       -3.13160
C         -1.42515        1.95897       -0.68230
N         -0.00819        2.06917       -0.27379
C          0.18283        2.95605        0.91217
H         -2.96577       -1.40451       -3.48826
H         -1.35371        0.07876       -4.96265
H         -3.00681       -0.36375       -1.04215
H         -2.05632        1.58172        0.13727
H         -1.81343        2.94786       -0.99671
C         -0.53175        2.40849        2.17252
C          1.68360        3.02193        1.20404
C         -0.30351        4.39978        0.64106
H         -0.19721        1.37603        2.39708
H         -0.31185        3.05031        3.05361
H         -1.63479        2.41428        2.06396
H          2.23962        3.43124        0.33379
H          1.88893        3.66362        2.09025
H          2.04015        2.00069        1.41001
H          0.19452        4.81749       -0.25989
H         -1.40214        4.45439        0.49770
H         -0.07286        5.06176        1.50373
Na         3.77752       -1.71165       -1.96036
C          2.06309        1.19445       -4.40873
C          2.19145        2.51046       -4.02513
C          2.94473        2.52767       -2.86683
C          3.26369        1.27093       -2.54941
N          2.73302        0.35796       -3.49640
C          4.13187        0.89003       -1.39680
N          3.50510       -0.12455       -0.52545
C          4.37357       -0.50876        0.64288
H          1.78745        3.36820       -4.54283
H          1.53032        0.84804       -5.28614
H          3.25187        3.40969       -2.31962
H          4.37004        1.81717       -0.84237
H          5.05833        0.48340       -1.84351
C          4.70697        0.68532        1.57645
C          3.64108       -1.55810        1.49750
C          5.70621       -1.14919        0.16984
H          3.80826        1.06633        2.08404
H          5.40481        0.35951        2.37915
H          5.22234        1.51910        1.06192
H          3.46304       -2.49161        0.93204
H          4.25318       -1.83172        2.38654
H          2.66978       -1.15700        1.85722
H          5.51336       -2.04236       -0.45994
H          6.34560       -0.44294       -0.39484
H          6.31037       -1.48331        1.04174
