110
speciation1954.ct
Na        -2.01386        1.22670        3.22500
Mg         1.68422       -4.51156        3.00567
C         -3.76592        3.77907        3.45426
C         -1.43388        4.26705        3.57482
O         -2.46074        3.30221        3.79011
C         -3.90963        4.36632        2.04036
C         -1.52522        5.49080        4.50735
H         -4.45786        2.91630        3.52962
H         -4.13167        4.50886        4.21158
H         -0.46308        3.77870        3.79015
H         -1.38474        4.59037        2.51573
H         -1.44931        5.18421        5.57159
H         -0.68789        6.18788        4.28418
H         -2.46618        6.06155        4.36099
H         -3.52016        3.64980        1.28955
H         -4.97996        4.57270        1.82528
H         -3.37669        5.33723        1.94634
H         -0.65543       -3.85148        4.01826
C         -1.40036       -5.62200        3.05115
C         -0.46998       -4.40455        3.07225
C         -1.11553       -6.55686        4.22822
H         -2.45453       -5.26523        3.11840
H         -1.27416       -6.16834        2.09298
H         -0.06971       -6.90735        4.15101
H         -1.24825       -6.01173        5.18870
C         -2.04256       -7.77118        4.22937
H         -0.75545       -3.75153        2.22165
H         -3.09993       -7.45791        4.36657
H         -1.94863       -8.33315        3.27624
H         -1.76402       -8.44680        5.06638
C          3.65999       -2.31210        3.18163
C          3.99980       -1.00023        3.38503
C          2.83486       -0.31265        3.47113
C          1.79388       -1.21872        3.26992
N          2.31809       -2.48655        3.17528
C          0.33770       -0.81403        3.14223
N          0.08883        0.57193        2.61083
C          0.43016        0.86216        1.17473
H          5.00604       -0.59676        3.45386
H          4.38666       -3.11120        3.06768
H          2.75723        0.75171        3.61732
H         -0.08078       -0.84033        4.17531
H         -0.24604       -1.55927        2.57054
C         -0.33800       -0.05725        0.20675
C          0.05125        2.32413        0.87206
C          1.94110        0.74911        0.85685
H         -1.43223        0.07133        0.32679
H         -0.07284        0.19041       -0.84677
H         -0.07051       -1.12195        0.36277
H          0.60248        3.01679        1.54499
H          0.32270        2.59280       -0.17553
H         -1.03688        2.49367        0.99729
H          2.53822        1.43782        1.48903
H          2.31233       -0.28196        0.95324
H          2.14859        1.03462       -0.19706
Na         3.33569       -4.10295        4.64586
Mg         1.06305        1.86067        3.70775
C         -4.05825       -0.39496        4.79764
C         -3.61193       -1.35580        2.65980
O         -3.66187       -0.16725        3.44324
C         -3.30105       -1.50931        5.54489
C         -4.99971       -1.97958        2.41615
H         -3.88260        0.54845        5.35261
H         -5.15634       -0.56831        4.86142
H         -3.19930       -1.09614        1.66538
H         -2.91366       -2.10476        3.08481
H         -5.64819       -1.28279        1.84445
H         -4.88821       -2.91733        1.82999
H         -5.51052       -2.24954        3.36383
H         -2.20750       -1.33631        5.48756
H         -3.60912       -1.52172        6.61246
H         -3.54261       -2.51445        5.13852
H          3.59733       -5.19038        1.08245
C          2.27965       -4.40173       -0.30066
C          2.49436       -5.17997        0.98422
C          2.85201       -3.00060       -0.15409
H          2.81390       -4.92722       -1.12966
H          1.19779       -4.36808       -0.53776
H          2.30469       -2.49831        0.66028
H          3.93619       -3.04355        0.10064
C          2.68103       -2.19556       -1.43111
H          2.14648       -6.20753        0.75615
H          3.25560       -2.66241       -2.25916
H          1.60590       -2.14718       -1.70160
H          3.06151       -1.16695       -1.26650
C          3.68394       -2.72162        7.44820
C          3.28639       -3.24280        8.66414
C          2.63655       -4.43312        8.38887
C          2.66221       -4.57973        7.01112
N          3.34671       -3.57568        6.46194
C          1.97973       -5.68433        6.17736
N          2.36501       -5.82519        4.71152
C          3.25100       -7.03221        4.47739
H          3.44891       -2.80065        9.64021
H          4.20438       -1.78577        7.29690
H          2.19909       -5.10595        9.11541
H          2.14341       -6.60795        6.74941
H          0.89010       -5.50719        6.24453
C          2.58456       -8.36968        4.92275
C          3.51997       -7.21092        2.99560
C          4.62514       -6.87725        5.16629
H          1.59149       -8.49357        4.44514
H          3.21267       -9.23630        4.61682
H          2.47414       -8.48914        6.01439
H          4.12995       -6.36725        2.64800
H          4.11911       -8.12472        2.78415
H          2.55203       -7.33899        2.47729
H          5.13775       -5.95767        4.80815
H          4.53232       -6.83100        6.26782
H          5.28023       -7.74441        4.91672
