110
speciation2359.ct
Na        -0.91359        3.14036       -1.26443
Mg         5.50778        2.71739       -0.02734
C         -2.32540        5.00706       -3.29958
C         -3.84089        3.38394       -2.51275
O         -2.50176        3.66747       -2.87137
C         -2.62390        6.05946       -2.22189
C         -3.94715        1.93950       -2.04390
H         -1.25681        5.11391       -3.58175
H         -2.91098        5.20731       -4.22361
H         -4.20222        4.01778       -1.67772
H         -4.49868        3.49700       -3.40349
H         -3.35108        1.79544       -1.11808
H         -5.00890        1.69704       -1.82262
H         -3.57688        1.24735       -2.82880
H         -2.05007        5.84060       -1.29759
H         -2.33391        7.06324       -2.59628
H         -3.70677        6.10681       -1.98560
H          6.34212        2.17711        2.47603
C          5.59416        0.20634        2.53431
C          5.43772        1.68404        2.06248
C          4.42242       -0.75415        2.28297
H          6.51947       -0.22207        2.09449
H          5.73904        0.20651        3.64283
H          4.70562       -1.75676        2.68387
H          3.51648       -0.42162        2.83371
C          4.10129       -0.90676        0.80737
H          4.55919        2.10569        2.59706
H          3.74789        0.06332        0.40476
H          5.00177       -1.24516        0.25514
H          3.29808       -1.66481        0.68485
C          3.98314        1.97461       -2.56098
C          2.79285        2.02531       -3.24629
C          1.86479        2.54928       -2.38158
C          2.52691        2.79583       -1.18932
N          3.84277        2.44811       -1.29114
C          1.86509        3.42522        0.01029
N          0.70881        2.60189        0.37714
C         -0.03035        2.85758        1.63315
H          2.60763        1.74756       -4.28786
H          4.91391        1.66116       -2.99672
H          0.82405        2.74830       -2.60747
H          1.50087        4.43110       -0.27608
H          2.61430        3.49198        0.81802
C         -0.81986        4.17495        1.56809
C         -1.03687        1.69779        1.72062
C          0.86569        2.90967        2.90562
H         -1.35591        4.29325        0.60877
H         -1.57798        4.19394        2.38432
H         -0.15339        5.03756        1.72084
H         -0.50305        0.72142        1.67648
H         -1.64766        1.73018        2.64496
H         -1.71827        1.73361        0.84093
H          1.28482        1.92839        3.20702
H          1.69878        3.63172        2.78619
H          0.27512        3.29755        3.76751
Na         9.91613        6.78517       -0.34101
Mg         4.25781        5.51272        1.30663
C          1.87210        6.95746        1.55332
C          3.19921        6.78959        3.52388
O          2.74543        6.14729        2.34278
C          2.29304        8.41435        1.29259
C          2.09122        7.01346        4.55387
H          1.77823        6.46895        0.56613
H          0.85750        6.96439        1.99892
H          3.93094        6.11161        4.00930
H          3.73085        7.73843        3.30529
H          1.63709        6.04367        4.84527
H          2.52912        7.49048        5.45716
H          1.30435        7.68944        4.16297
H          3.29358        8.48131        0.84935
H          1.57712        8.87605        0.58026
H          2.27720        9.02247        2.21835
H          7.39522        2.42901       -2.01462
C          7.76288        0.46050       -1.29862
C          7.32608        1.91541       -1.03852
C          6.92187       -0.27762       -2.34693
H          8.81080        0.48551       -1.68263
H          7.76269       -0.09575       -0.33907
H          5.86015       -0.31696       -2.03080
H          6.99645        0.25831       -3.31937
C          7.43067       -1.71016       -2.54478
H          8.09732        2.34379       -0.36515
H          8.50620       -1.71535       -2.82782
H          7.30387       -2.29604       -1.60946
H          6.85699       -2.20990       -3.35422
C          8.34303        8.37266        1.75856
C          7.27256        8.38126        2.62073
C          6.65364        7.15223        2.49512
C          7.36364        6.43857        1.55730
N          8.41265        7.18319        1.11916
C          7.04596        5.02901        1.06539
N          5.80918        4.86179        0.24377
C          5.78568        5.73504       -1.01257
H          6.97665        9.20309        3.25836
H          9.03941        9.18569        1.60018
H          5.79415        6.82447        3.03228
H          6.99021        4.37450        1.94827
H          7.91374        4.65554        0.47100
C          7.01522        5.53136       -1.92403
C          4.53095        5.44391       -1.85157
C          5.66878        7.25071       -0.70967
H          7.06846        4.49551       -2.28256
H          6.94790        6.18257       -2.82330
H          7.96122        5.79832       -1.41552
H          3.60217        5.60366       -1.26325
H          4.48307        6.11549       -2.74042
H          4.57342        4.44306       -2.27707
H          4.83093        7.41292       -0.02530
H          6.56527        7.73162       -0.31270
H          5.48728        7.83609       -1.63886
