110
speciation2643.ct
Na         4.91329       -2.21536       -0.68023
Mg         1.68089       -1.13564       -0.43012
C         -0.29958        0.90846       -0.78728
C         -0.07699       -0.49296       -2.70898
O          0.53274        0.02370       -1.52953
C         -1.70984        0.39496       -0.47029
C         -0.38227        0.60354       -3.75299
H          0.20125        1.08222        0.17535
H         -0.34475        1.90637       -1.27365
H          0.62996       -1.19895       -3.18987
H         -0.98636       -1.07974       -2.47416
H          0.55299        1.09669       -4.08971
H         -0.88323        0.15158       -4.63594
H         -1.07134        1.37699       -3.35511
H         -1.66099       -0.58699        0.01375
H         -2.21404        1.09722        0.22429
H         -2.33585        0.31191       -1.38128
H          1.65814        1.09540        6.68177
C          3.71489        0.55785        6.45178
C          2.24858        0.30334        6.18648
C          4.06551        0.60954        7.96006
H          4.33586       -0.22864        5.96089
H          3.98860        1.53878        6.00165
H          5.14366        0.85661        8.05539
H          3.48082        1.41385        8.45801
C          3.82422       -0.71198        8.69575
H          1.97166       -0.69308        6.59150
H          2.74440       -0.96917        8.72217
H          4.39181       -1.53283        8.21080
H          4.17192       -0.61958        9.74812
C          2.61136       -2.61877        3.84649
C          3.45169       -3.47705        3.16840
C          4.04290       -2.74932        2.16580
C          3.54137       -1.46653        2.26286
N          2.66057       -1.37740        3.30900
C          4.00418       -0.35250        1.36230
N          3.68293       -0.57332       -0.06697
C          4.16403        0.53707       -0.95451
H          3.63315       -4.51931        3.38709
H          2.01283       -2.87330        4.70167
H          4.77924       -3.11054        1.45942
H          5.10082       -0.27039        1.50823
H          3.57133        0.57253        1.68587
C          5.69492        0.78843       -0.83754
C          3.88705        0.12794       -2.40895
C          3.44246        1.87219       -0.65588
H          6.27462       -0.13707       -1.03505
H          6.01944        1.55691       -1.57580
H          5.98501        1.18931        0.15603
H          2.80914       -0.04404       -2.57367
H          4.22354        0.92017       -3.11480
H          4.43435       -0.80584       -2.65808
H          2.34658        1.74821       -0.68262
H          3.72954        2.28131        0.33574
H          3.72685        2.64664       -1.40206
Na        -4.27913        1.22187        6.21640
Mg         1.56099        0.12637        4.21136
C          1.75467       -3.91804       -0.25092
C         -0.29875       -3.14746        0.63851
O          1.06996       -2.84072        0.36736
C          1.05788       -4.50257       -1.49368
C         -0.47305       -4.18097        1.77622
H          2.73495       -3.52133       -0.58293
H          1.98783       -4.71550        0.48585
H         -0.81042       -2.23632        0.94781
H         -0.86931       -3.44127       -0.26204
H         -0.00639       -3.83853        2.71883
H         -1.55236       -4.35707        1.96109
H         -0.01742       -5.15909        1.50790
H          0.80382       -3.68628       -2.20167
H          1.72387       -5.23428       -1.99122
H          0.13592       -5.05953       -1.21918
H          2.68989        1.95416        2.88269
C          0.86459        2.97069        2.59369
C          1.62032        1.67917        2.83289
C          1.15095        3.98353        3.68984
H          1.20418        3.38743        1.61570
H         -0.22315        2.75484        2.51984
H          0.80480        3.57156        4.66020
H          2.24594        4.17818        3.74423
C          0.43789        5.29625        3.39406
H          1.40168        1.02546        1.96807
H          0.82394        5.73859        2.44906
H         -0.65486        5.12504        3.29424
H          0.62169        6.00819        4.22340
C         -0.85890       -1.23168        3.56693
C         -2.18683       -1.51243        3.80585
C         -2.53376       -0.78050        4.91895
C         -1.39398       -0.07885        5.29600
N         -0.36325       -0.38427        4.46871
C         -1.28076        0.86763        6.45739
N         -2.47956        0.83995        7.31326
C         -2.49108        1.78940        8.45156
H         -2.83217       -2.16720        3.23687
H         -0.23638       -1.61037        2.79809
H         -3.51217       -0.76016        5.38271
H         -0.42649        0.52090        7.06150
H         -1.09444        1.88048        6.04868
C         -2.70277        3.22618        7.93790
C         -3.67388        1.39925        9.35470
C         -1.20120        1.73044        9.30588
H         -3.62783        3.28812        7.32679
H         -2.79634        3.93566        8.78808
H         -1.84779        3.56130        7.31666
H         -3.53511        0.36650        9.74408
H         -3.75851        2.08849       10.22321
H         -4.62869        1.42802        8.78810
H         -1.03606        0.70818        9.70819
H         -0.30700        2.03983        8.72615
H         -1.28204        2.43109       10.16664
