110
speciation2000.ct
Na         1.22201       -0.89593        4.95366
Mg         0.77726        3.87387        4.25581
C          1.71466       -0.15339        7.90178
C          1.49248       -2.48737        7.71720
O          1.40703       -1.24118        7.04850
C          3.19216       -0.09883        8.31103
C          1.11820       -3.61707        6.77738
H          1.47973        0.76591        7.34289
H          1.04714       -0.13045        8.79287
H          2.53011       -2.69525        8.05795
H          0.78479       -2.51540        8.57506
H          1.84035       -3.66156        5.93826
H          1.15943       -4.58162        7.32860
H          0.09207       -3.46523        6.38505
H          3.84503       -0.14885        7.41828
H          3.40213        0.85146        8.84026
H          3.44812       -0.92588        9.00591
H          3.17601        3.64698        5.49213
C          3.24181        1.81093        4.42247
C          2.44984        2.88946        5.16170
C          3.81401        2.27517        3.07506
H          4.07518        1.47917        5.07770
H          2.59157        0.93592        4.25125
H          4.33872        1.41274        2.60640
H          2.99012        2.58790        2.39849
C          4.81737        3.41817        3.21596
H          2.04309        2.45776        6.09176
H          4.32774        4.32446        3.62508
H          5.65305        3.11478        3.88234
H          5.23217        3.67272        2.21831
C         -0.49391        4.20146        1.60636
C         -0.97825        3.56186        0.48492
C         -0.71562        2.23337        0.65973
C         -0.07642        2.12170        1.87991
N          0.07590        3.32391        2.46155
C          0.30934        0.79894        2.48302
N         -0.02320        0.69094        3.90800
C         -1.43957        0.80822        4.34820
H         -1.48021        4.02843       -0.34532
H         -0.58972        5.25620        1.78451
H         -0.97661        1.43272       -0.01777
H          1.40573        0.71803        2.39254
H         -0.11756       -0.04789        1.91050
C         -2.36418       -0.25166        3.73825
C         -1.37873        0.58313        5.83944
C         -2.06935        2.20394        4.07626
H         -2.01606       -1.27224        3.98962
H         -3.39214       -0.12097        4.15349
H         -2.43410       -0.13058        2.63862
H         -0.68210        1.33841        6.24540
H         -2.39041        0.63764        6.28577
H         -0.95531       -0.40876        6.08264
H         -1.42144        3.02052        4.45261
H         -2.28543        2.37384        3.00432
H         -3.06213        2.29952        4.56555
Na        -1.86090        5.88481        4.47755
Mg         0.88992        3.25409        9.20366
C          1.80906       -2.68155        2.60235
C          3.74966       -2.54475        3.92309
O          2.43149       -2.06736        3.71246
C          1.38755       -4.12118        2.89579
C          4.41249       -1.80299        5.06560
H          0.89584       -2.10066        2.36931
H          2.44529       -2.61853        1.69013
H          3.74983       -3.61862        4.20410
H          4.37352       -2.37231        3.01722
H          3.85991       -1.99281        6.00525
H          5.45648       -2.16276        5.18839
H          4.43864       -0.72156        4.84921
H          0.74635       -4.14966        3.80016
H          0.81666       -4.52469        2.03486
H          2.27002       -4.77517        3.04878
H          2.08362        3.74065       11.45869
C          3.64683        4.22716       10.01716
C          2.47279        3.37469       10.48491
C          3.23445        5.67903        9.77556
H          4.44154        4.18844       10.79481
H          4.04831        3.79373        9.07532
H          2.45456        5.71406        8.98694
H          2.81933        6.11521       10.71002
C          4.43394        6.51505        9.33189
H          2.83035        2.33377       10.62441
H          5.21473        6.51753       10.12303
H          4.86871        6.10448        8.39533
H          4.11377        7.56139        9.14665
C         -1.74800        2.39826        8.20832
C         -2.80093        2.84434        7.43577
C         -2.33273        3.92363        6.71233
C         -1.00678        4.08867        7.07288
N         -0.65415        3.13645        7.95381
C         -0.12405        5.25459        6.74228
N          0.07782        5.46212        5.29814
C          0.90225        6.66511        4.97195
H         -3.81182        2.45841        7.44859
H         -1.79469        1.62408        8.96287
H         -2.92595        4.55007        6.06206
H          0.84200        5.08879        7.25624
H         -0.62567        6.13936        7.18463
C          2.31220        6.58947        5.57185
C          1.04063        6.71363        3.44299
C          0.21805        7.97573        5.41741
H          2.83154        5.69202        5.21382
H          2.91311        7.46499        5.25252
H          2.29152        6.59926        6.67649
H          0.04672        6.88556        2.98073
H          1.69650        7.54953        3.12463
H          1.48031        5.76366        3.05944
H         -0.80434        8.06358        4.98822
H          0.15146        8.05707        6.51857
H          0.81172        8.84980        5.06683
