110
speciation1896.ct
Na         1.16790       -0.18268       -0.30747
Mg        -2.28715        1.37927        1.20833
C          3.94661       -1.71150       -0.10462
C          2.45510       -2.58172        1.53249
O          2.63524       -1.66756        0.45711
C          4.33173       -3.08714       -0.66780
C          3.27416       -2.28225        2.79432
H          3.97303       -0.99472       -0.94586
H          4.71657       -1.34302        0.60772
H          1.41712       -2.54686        1.84338
H          2.59529       -3.62591        1.19416
H          2.96128       -1.32109        3.24927
H          3.08420       -3.08718        3.53719
H          4.36429       -2.26803        2.59927
H          3.54491       -3.44590       -1.36206
H          5.29765       -3.02168       -1.20962
H          4.47577       -3.83040        0.14470
H         -2.07438        3.02212        3.46397
C         -4.15793        3.31725        3.06914
C         -2.72655        3.12935        2.57309
C         -4.34477        4.53061        3.98434
H         -4.83908        3.38922        2.19474
H         -4.41901        2.46702        3.69134
H         -3.66535        4.44929        4.86156
H         -4.11419        5.47058        3.43746
C         -5.78893        4.57529        4.49113
H         -2.46458        4.08222        2.08857
H         -6.49332        4.66516        3.63685
H         -6.02883        3.64572        5.05384
H         -5.93204        5.44127        5.16917
C          3.68766        1.93763        3.66513
C          4.07808        1.27287        2.52553
C          2.92475        1.04063        1.80409
C          1.88703        1.57376        2.52719
N          2.35121        2.10902        3.66085
C          0.39884        1.57016        2.18557
N         -0.03451        1.54681        0.76085
C          0.37894        2.80124       -0.01595
H          5.08419        0.99120        2.24815
H          4.34357        2.26966        4.45464
H          2.89287        0.56070        0.85203
H         -0.07128        2.41447        2.72145
H         -0.04339        0.71831        2.70624
C          1.91382        3.00794       -0.14469
C         -0.12350        2.69862       -1.46414
C         -0.18605        4.11370        0.57096
H          2.40193        2.13218       -0.61470
H          2.14534        3.87553       -0.80282
H          2.38967        3.28900        0.81248
H         -1.21632        2.61701       -1.50329
H          0.15958        3.60465       -2.05047
H          0.31520        1.82719       -1.97540
H         -1.27403        4.15478        0.41902
H          0.09336        4.26738        1.63309
H          0.21940        4.99764        0.02812
Na         1.25124        3.09880        5.19854
Mg        -1.88079        0.15759        3.86387
C         -0.42539       -1.09411       -2.63035
C          1.90816       -1.05386       -3.13036
O          0.83143       -0.47199       -2.40169
C         -0.45218       -2.60498       -2.37932
C          1.78931       -0.87259       -4.65320
H         -1.13825       -0.63083       -1.92072
H         -0.81630       -0.84778       -3.64228
H          2.83522       -0.52578       -2.83808
H          2.05480       -2.11919       -2.86947
H          1.76945        0.20490       -4.91864
H          2.67023       -1.33911       -5.14739
H          0.88512       -1.36758       -5.06124
H         -0.04672       -2.82651       -1.37062
H         -1.49826       -2.97072       -2.44203
H          0.13036       -3.15169       -3.15035
H         -4.62001        2.09246       -0.15982
C         -3.78386        1.09299       -1.89959
C         -3.62107        1.93297       -0.60901
C         -4.27870       -0.30560       -1.57833
H         -4.47699        1.57061       -2.63199
H         -2.79196        1.00754       -2.38464
H         -4.15204       -0.99475       -2.44026
H         -3.64107       -0.62635       -0.75374
C         -5.74477       -0.35437       -1.17434
H         -3.29856        2.94344       -0.93781
H         -5.96425        0.41515       -0.42260
H         -6.41257       -0.16143       -2.03671
H         -5.96831       -1.36393       -0.76723
C         -7.56519       -1.00647        1.36680
C         -7.30377       -2.27966        1.80206
C         -6.10822       -2.22844        2.50163
C         -5.59637       -0.98894        2.41871
N         -6.52558       -0.14244        1.76874
C         -4.33248       -0.47582        3.09447
N         -2.99913       -0.48090        2.39404
C         -2.43056       -1.86352        2.21613
H         -7.92084       -3.15037        1.62208
H         -8.42394       -0.70505        0.77881
H         -5.66107       -3.07003        3.02044
H         -4.27451       -0.90898        4.11922
H         -4.57356        0.53606        3.36716
C         -3.16443       -2.75014        1.18757
C         -1.01341       -1.74295        1.67993
C         -2.32384       -2.63994        3.57337
H         -3.15569       -2.32104        0.18853
H         -2.64964       -3.72809        1.08584
H         -4.17439       -3.02883        1.44056
H         -0.35452       -1.29646        2.43936
H         -0.62816       -2.76102        1.46681
H         -0.99073       -1.14959        0.74280
H         -1.56969       -2.17590        4.24900
H         -3.26875       -2.73042        4.14086
H         -2.00218       -3.68918        3.39982
