83
speciation456.ct
Na         1.10256        0.35181        0.10342
Mg        -2.05127        1.16851        1.59021
C          0.26749        0.40539       -2.80990
C         -1.52458       -0.21085       -1.38275
O         -0.11749       -0.24439       -1.59852
C         -0.22986        1.85156       -2.97724
C         -2.32891       -1.01223       -2.42760
H          1.36744        0.44006       -2.82427
H         -0.00598       -0.20799       -3.69702
H         -1.73179       -0.68196       -0.40209
H         -1.89426        0.82927       -1.30919
H         -2.02504       -2.08048       -2.42340
H         -3.41332       -0.95717       -2.18998
H         -2.20692       -0.60708       -3.45391
H          0.05454        2.45776       -2.09293
H          0.22610        2.29913       -3.88542
H         -1.32991        1.89406       -3.12530
C         -2.25449       -1.50047        5.59864
C         -3.23570       -1.65681        4.64658
C         -2.63702       -1.48470        3.40781
C         -1.34094       -1.21315        3.58978
N         -1.02077       -1.26117        4.96775
C         -0.33154       -0.96557        2.48265
N         -0.24367        0.43556        1.99660
C          0.33678        1.46028        2.91792
H         -4.28155       -1.85215        4.84819
H         -2.40448       -1.54794        6.67109
H         -3.14159       -1.54983        2.44996
H         -0.63803       -1.60342        1.62890
H          0.65909       -1.36298        2.77734
C          1.70079        1.01381        3.49105
C          0.54372        2.74346        2.09956
C         -0.61184        1.84701        4.07786
H          2.40412        0.77090        2.66912
H          2.14303        1.82226        4.11248
H          1.59229        0.12807        4.14901
H         -0.42845        3.10082        1.69064
H          0.96484        3.55529        2.73352
H          1.23116        2.56837        1.24949
H         -1.58604        2.19559        3.68763
H         -0.79623        1.04554        4.79603
H         -0.17072        2.66909        4.68160
Na         3.43503        1.05688       -2.32133
C         -4.30188        2.46656        2.40548
C         -4.51922        1.13158        0.44436
O         -3.70057        2.01332        1.19468
C         -4.75327        1.35028        3.35265
C         -5.77139        1.81090       -0.11262
H         -3.54417        3.07079        2.94414
H         -5.13436        3.17013        2.20161
H         -3.93777        0.81296       -0.43636
H         -4.75980        0.20279        0.99867
H         -5.48817        2.69193       -0.72815
H         -6.32564        1.09229       -0.75209
H         -6.45484        2.13431        0.69908
H         -3.89770        0.69513        3.55248
H         -5.09998        1.77620        4.31612
H         -5.59675        0.76315        2.93214
C          3.48998        4.46708        0.17558
C          3.71864        4.29087        1.52312
C          4.06724        2.97050        1.70958
C          4.04376        2.35984        0.52640
N          3.69094        3.25402       -0.50600
C          4.43525        0.93382        0.31566
N          3.39874        0.13352       -0.38581
C          3.87727       -1.26797       -0.64692
H          3.64558        5.05202        2.28757
H          3.20364        5.39731       -0.29437
H          4.34193        2.50836        2.65158
H          4.68606        0.49616        1.29978
H          5.35833        0.98899       -0.29651
C          4.12337       -2.05317        0.66262
C          2.77928       -1.99873       -1.43458
C          5.17425       -1.30444       -1.50261
H          3.20747       -2.08250        1.28725
H          4.43201       -3.09676        0.43156
H          4.95350       -1.62552        1.26071
H          2.59207       -1.49690       -2.40445
H          3.08629       -3.04769       -1.64655
H          1.83858       -2.02626       -0.84704
H          5.05780       -0.71366       -2.43567
H          6.05954       -0.92489       -0.95042
H          5.43111       -2.34764       -1.79068
