95
speciation1545.ct
Na        -4.41553       -0.57642       -0.46624
Li        -0.62325        2.77835        4.17366
C         -1.80315        0.26322        4.60539
C          0.37558        0.44744        5.55590
O         -0.54034        0.91597        4.58131
C         -2.53511        0.20288        5.94019
C          0.88077       -0.96112        5.22099
H         -2.47721        0.85074        3.97815
H         -1.72838       -0.73519        4.12267
H          1.25803        1.11801        5.55563
H         -0.04056        0.49912        6.58192
H          1.38244       -0.96199        4.22982
H          1.60535       -1.29594        5.99207
H          0.04776       -1.69431        5.20239
H         -2.64712        1.22551        6.35426
H         -3.54671       -0.22155        5.75644
H         -2.02091       -0.46344        6.65863
H          1.34012        4.49979        3.46598
C          2.07769        2.74422        2.44765
C          1.35010        3.40073        3.61983
C          1.39556        3.08737        1.13025
H          3.12433        3.12265        2.41397
H          2.10692        1.64199        2.59645
H          0.35345        2.72070        1.18100
H          1.36646        4.18922        0.99362
C          2.14487        2.47472       -0.05689
H          1.94135        3.18750        4.53447
H          3.17840        2.87305       -0.11718
H          2.18684        1.36712        0.03396
H          1.62772        2.73883       -1.00311
C         -2.92575        4.09873        3.00508
C         -3.99849        4.11318        2.14862
C         -3.92144        2.95804        1.41294
C         -2.78932        2.29310        1.82604
N         -2.19070        2.98214        2.84363
C         -2.29174        0.94087        1.29049
N         -2.64713        0.53239       -0.09937
C         -2.16614        1.26169       -1.28562
H         -4.77239        4.87638        2.08367
H         -2.72951        4.87534        3.73726
H         -4.64023        2.65426        0.65982
H         -2.70067        0.15323        1.95164
H         -1.19870        0.87891        1.44517
C         -0.66020        1.08616       -1.37077
C         -2.79258        0.60911       -2.53410
C         -2.55733        2.75337       -1.29231
H         -0.40208        0.00715       -1.41788
H         -0.24390        1.60733       -2.25546
H         -0.21509        1.48962       -0.46318
H         -3.89661        0.72069       -2.52537
H         -2.42210        1.09811       -3.46040
H         -2.55095       -0.47407       -2.57668
H         -3.66344        2.87336       -1.28888
H         -2.10366        3.30130       -0.44341
H         -2.18745        3.24787       -2.21295
Na        -4.60875       -0.06143       -0.49758
Li        -5.78689       -4.99302       -2.32083
H         -1.22062        5.09663        5.35625
C         -0.49905        4.35245        7.22454
C         -1.14620        4.10555        5.85278
C          0.92674        4.92147        7.18627
H         -1.13825        5.07185        7.78920
H         -0.49571        3.39628        7.78788
H          1.25982        5.03320        8.24404
H          1.60977        4.20121        6.69135
C          1.03326        6.29503        6.51022
H         -2.18804        3.76756        6.05795
H          0.80270        6.22149        5.43227
H          0.34482        7.01952        6.99776
H          2.07537        6.67119        6.62520
C         -5.45938       -2.97325       -4.44040
C         -5.70297       -1.64782       -4.73432
C         -6.29495       -1.09347       -3.61284
C         -6.38509       -2.11114       -2.67921
N         -5.87176       -3.24925       -3.18991
C         -7.01612       -2.05560       -1.31219
N         -6.47708       -0.98919       -0.44236
C         -6.87602       -1.00207        0.98688
H         -5.48084       -1.15507       -5.67369
H         -5.01848       -3.70448       -5.10685
H         -6.62948       -0.07087       -3.51118
H         -6.88562       -3.05958       -0.86824
H         -8.09811       -1.86013       -1.45719
C         -6.72162       -2.38818        1.66346
C         -5.95394       -0.03845        1.76138
C         -8.30831       -0.48253        1.09606
H         -5.66719       -2.74085        1.60628
H         -6.99491       -2.31938        2.74014
H         -7.38392       -3.15698        1.22200
H         -5.97892        0.96873        1.30648
H         -6.25214        0.04880        2.82753
H         -4.90883       -0.41062        1.75766
H         -8.36035        0.53124        0.63979
H         -9.00933       -1.15062        0.55979
H         -8.61764       -0.41019        2.15940
