53
speciation867.ct
Na         2.35003        0.39093        2.91560
C          3.67579       -1.13810        0.53351
C          4.35744       -0.96358       -0.65484
C          4.46240        0.39875       -0.85194
C          3.84466        0.99276        0.23136
N          3.36289        0.05507        1.06932
C          3.76936        2.46072        0.52452
N          3.05210        3.23516       -0.50207
C          3.13731        4.73432       -0.36909
H          4.74570       -1.74845       -1.29097
H          3.43701       -2.08791        0.99508
H          4.95888        0.89039       -1.67771
H          3.26693        2.59161        1.50107
H          4.82238        2.79139        0.60855
C          4.60721        5.22376       -0.39757
C          2.43470        5.49861       -1.50682
C          2.44660        5.18886        0.92721
H          5.10628        4.89011       -1.33471
H          4.65172        6.33546       -0.36411
H          5.19140        4.87275        0.47217
H          1.34895        5.28659       -1.53448
H          2.49813        6.59898       -1.34352
H          2.94453        5.35061       -2.47411
H          1.38197        4.86631        0.91950
H          2.94427        4.77371        1.82231
H          2.47190        6.29714        1.01683
Na         2.00995        2.01387       -1.86856
Li         2.49028        2.16884       -2.17362
C          1.90526       -0.69334       -7.65071
C          3.15876       -0.52992       -7.10779
C          2.99047       -0.29453       -5.75248
C          1.68454       -0.30527       -5.48533
N          0.92582       -0.58097       -6.64586
C          1.10415        0.05073       -4.15036
N          1.51344        1.42634       -3.82221
C          0.92087        2.57061       -4.54772
H          4.09700       -0.55480       -7.64134
H          1.69676       -0.86649       -8.69835
H          3.77423       -0.08383       -5.03553
H          1.50122       -0.65476       -3.39300
H         -0.00304       -0.05127       -4.15207
C         -0.61891        2.52229       -4.61355
C          1.31566        3.77702       -3.75401
C          1.53367        2.73608       -5.95236
H         -1.04695        2.42241       -3.59132
H         -1.00922        3.46685       -5.05799
H         -0.98077        1.68141       -5.23834
H          2.42373        3.75093       -3.67535
H          0.99103        4.72930       -4.21392
H          0.84706        3.67403       -2.75913
H          2.64585        2.76483       -5.88960
H          1.23057        1.93753       -6.64932
H          1.18941        3.69193       -6.41056
