81
speciation608.ct
Na         1.07510       -0.04470       -0.04859
Mg        -2.75156        3.92268        1.91591
C         -3.17364        4.32178       -1.22834
C         -5.06411        4.59218        0.13219
O         -3.70274        4.20597        0.09681
C         -3.20442        5.74790       -1.81635
C         -5.66120        4.15230        1.44210
H         -2.11871        3.99215       -1.22254
H         -3.71589        3.63775       -1.92376
H         -5.12640        5.69840        0.07854
H         -5.67711        4.12472       -0.67719
H         -4.87954        4.24908        2.17720
H         -6.49732        4.81607        1.74115
H         -5.96916        3.08774        1.42172
H         -2.67216        6.45653       -1.15243
H         -2.71064        5.75565       -2.81507
H         -4.24451        6.10681       -1.98245
H         -4.20351        5.12078        3.99385
C         -2.77822        4.54121        5.45050
C         -3.47083        4.29104        4.09624
C         -2.02935        5.87869        5.49555
H         -3.56255        4.56033        6.24373
H         -2.09309        3.70303        5.68674
H         -1.24055        5.88360        4.71677
H         -2.73931        6.71270        5.29822
C         -1.38159        6.11421        6.86467
H         -4.04883        3.34873        4.22494
H         -2.15098        6.16214        7.66620
H         -0.66425        5.30039        7.10280
H         -0.82909        7.07814        6.85675
C         -0.38474        2.69838        3.52133
C          0.41826        1.57229        3.49538
C          0.02582        0.83324        2.40568
C         -0.99292        1.54983        1.81178
N         -1.25848        2.67951        2.49426
C         -1.74933        1.20405        0.59020
N         -1.29490       -0.04470       -0.04859
C         -2.08864       -0.34448       -1.29300
H          1.20067        1.31035        4.19601
H         -0.33349        3.47921        4.25984
H          0.43931       -0.11611        2.09341
H         -1.58713        2.05811       -0.08860
H         -2.80929        1.14118        0.89855
C         -1.92546        0.75350       -2.37302
C         -1.60521       -1.66871       -1.90406
C         -3.60539       -0.50788       -0.98678
H         -0.85738        0.90388       -2.63088
H         -2.47957        0.47809       -3.29759
H         -2.35844        1.71778       -2.05279
H         -1.73830       -2.50704       -1.19004
H         -2.20185       -1.90380       -2.81749
H         -0.53966       -1.60212       -2.20382
H         -3.77203       -1.29613       -0.22252
H         -4.08001        0.43321       -0.64054
H         -4.16423       -0.79064       -1.90575
Mg         2.66833       -3.71390       -2.03844
C          2.57997       -4.39284        0.86404
C          2.95653       -3.87575        2.10104
C          3.53941       -2.65912        1.84999
C          3.50900       -2.47300        0.49220
N          2.91980       -3.53228       -0.11042
C          4.08898       -1.35600       -0.29272
N          3.44510       -0.04470       -0.04859
C          4.07209        1.04285       -0.87440
H          2.82175       -4.36610        3.05209
H          2.10933       -5.34333        0.68489
H          3.97514       -2.00051        2.58536
H          3.98568       -1.63600       -1.35671
H          5.16324       -1.32450       -0.02256
C          4.00077        0.76277       -2.40185
C          3.31954        2.35209       -0.60265
C          5.56225        1.26219       -0.50040
H          2.95501        0.60756       -2.73832
H          4.42985        1.61783       -2.97042
H          4.61291       -0.11311       -2.70173
H          3.39063        2.62865        0.46961
H          3.75838        3.18091       -1.20434
H          2.24982        2.25165       -0.88288
H          5.67435        1.46252        0.58514
H          6.19797        0.39446       -0.77206
H          5.98343        2.12500       -1.06239
