95
speciation1202.ct
Na         1.40675       -0.41030        0.40736
Mg         4.36700        1.47853        1.20557
C         -1.22059       -0.34832        2.00393
C         -1.24691       -2.19658        0.58133
O         -0.67392       -0.91940        0.82391
C         -0.78603       -1.06278        3.28475
C         -0.88884       -2.68782       -0.80934
H         -0.86127        0.68713        2.06055
H         -2.33295       -0.27139        1.94946
H         -0.89185       -2.94661        1.31853
H         -2.36226       -2.13966        0.60705
H          0.20895       -2.80772       -0.89276
H         -1.37262       -3.67456       -0.98397
H         -1.25366       -1.97235       -1.57648
H          0.31925       -1.14730        3.30883
H         -1.12779       -0.48070        4.16671
H         -1.24187       -2.07191        3.35601
H          3.45278        4.08264        1.85471
C          1.59284        3.62649        0.87803
C          3.09731        3.45311        1.01090
C          0.83223        3.16339        2.09426
H          1.36483        4.70405        0.70350
H          1.23428        3.08988       -0.01433
H          1.07575        2.10107        2.29261
H          1.13196        3.78685        2.96341
C         -0.65875        3.32662        1.83436
H          3.37602        3.99372        0.09593
H         -0.91169        4.37321        1.58801
H         -0.94995        2.68992        0.94954
H         -1.22887        2.99287        2.71374
C          7.30414       -2.27188       -1.28783
C          7.67257       -2.04673        0.01420
C          6.51700       -1.73023        0.68909
C          5.49666       -1.72063       -0.23000
N          5.97550       -2.10638       -1.43231
C          4.05607       -1.40119        0.09490
N          3.58417       -0.02415       -0.23071
C          3.32705        0.26241       -1.68886
H          8.66833       -2.10085        0.43350
H          7.97222       -2.55187       -2.09032
H          6.43942       -1.50957        1.72776
H          3.94620       -1.49929        1.18461
H          3.38739       -2.19575       -0.29312
C          2.49093       -0.85004       -2.36646
C          2.48835        1.53332       -1.78403
C          4.58288        0.53981       -2.54344
H          1.52438       -0.98927       -1.83895
H          2.25781       -0.57104       -3.41655
H          3.01830       -1.81931       -2.40428
H          3.03968        2.36338       -1.33222
H          2.28983        1.82598       -2.84045
H          1.52372        1.38564       -1.26872
H          5.05690        1.47296       -2.23510
H          5.32049       -0.25810       -2.57710
H          4.29243        0.70380       -3.60120
Na         4.99095       -2.43196       -3.30383
Mg        10.29338        0.42517       -0.43133
H          3.94034        1.42189        4.00754
C          4.18086       -0.72496        4.00065
C          3.75977        0.59637        3.28701
C          5.65431       -0.72773        4.38505
H          3.58475       -0.88172        4.92975
H          3.96265       -1.58283        3.33550
H          6.18655       -0.47815        3.49755
H          5.87705        0.04790        5.14751
C          6.18870       -2.09114        4.82439
H          2.66112        0.51055        3.14463
H          5.76290       -2.39611        5.79995
H          5.96217       -2.86470        4.05750
H          7.29681       -2.03071        4.91708
C         11.07408        2.17797        1.82632
C         10.55205        2.82653        2.92580
C          9.20312        2.53936        2.95863
C          8.95885        1.72516        1.86844
N         10.09900        1.50506        1.18611
C          7.63190        1.15195        1.45734
N          6.57283        2.13765        1.12844
C          6.98404        3.04463       -0.00530
H         11.10311        3.44669        3.62562
H         12.10741        2.19882        1.50502
H          8.48677        2.88530        3.68947
H          7.33172        0.56533        2.30405
H          7.79511        0.47845        0.60547
C          7.52940        2.26165       -1.22024
C          5.76219        3.80363       -0.42533
C          8.00598        4.14152        0.40138
H          6.92222        1.36570       -1.40464
H          7.56056        2.89975       -2.13179
H          8.55565        1.89021       -1.03988
H          5.43085        4.42100        0.43740
H          5.95167        4.49320       -1.27625
H          5.02380        3.05885       -0.74254
H          7.67968        4.66858        1.32502
H          9.03132        3.77163        0.53751
H          8.11091        4.89328       -0.40986
