83
speciation285.ct
Na         0.84895       -0.04774       -0.35744
Mg         4.50886        3.57951       -1.37323
C          2.54151        1.95594        1.53709
C          1.13586        0.63360        2.77264
O          1.68363        0.82531        1.47457
C          3.11781        2.31834        0.19151
C          0.08537       -0.46002        2.80588
H          1.99027        2.85632        1.89673
H          3.40980        1.74601        2.20786
H          1.94138        0.34086        3.48937
H          0.62935        1.56011        3.12497
H          0.52694       -1.44847        2.60960
H         -0.34783       -0.50662        3.82699
H         -0.71634       -0.24242        2.07342
H          2.30844        2.54963       -0.52973
H          3.73592        3.22811        0.35632
H          3.76131        1.50320       -0.19961
C          0.62674        1.09352       -6.55059
C         -0.22288        0.04828       -6.85008
C         -0.47679       -0.59746       -5.66719
C          0.21430        0.07969       -4.68114
N          0.89557        1.11449       -5.23113
C          0.24470       -0.32083       -3.23390
N         -0.20209        0.72876       -2.29600
C         -1.63965        1.15718       -2.39616
H         -0.59577       -0.22689       -7.82685
H          1.04586        1.78698       -7.26469
H         -1.09241       -1.47831       -5.52859
H          1.30104       -0.56956       -2.99070
H         -0.33948       -1.24862       -3.07185
C         -2.61737       -0.01067       -2.14245
C         -1.87490        2.24128       -1.32635
C         -2.00942        1.81336       -3.75562
H         -2.41999       -0.49007       -1.16248
H         -3.66977        0.35356       -2.15423
H         -2.53933       -0.77313       -2.94521
H         -1.22306        3.12057       -1.52556
H         -2.93139        2.59445       -1.34792
H         -1.65434        1.85126       -0.31188
H         -1.31162        2.63942       -4.01222
H         -2.04610        1.08821       -4.58246
H         -3.04067        2.22896       -3.72848
Na         2.42135        2.59517       -4.18399
C          2.17634       -2.46436        0.92460
C          0.55250       -3.13494       -0.69110
O          0.99037       -2.12003        0.20417
C          3.36903       -2.94093        0.08897
C          0.03694       -4.38816        0.03647
H          2.52037       -1.55415        1.44952
H          1.94436       -3.19630        1.72870
H         -0.30096       -2.73649       -1.27223
H          1.33199       -3.39681       -1.43391
H         -0.83844       -4.13626        0.67206
H         -0.27692       -5.14991       -0.71025
H          0.81955       -4.85460        0.66828
H          3.61681       -2.18948       -0.68803
H          4.24606       -3.07053        0.75885
H          3.17538       -3.92917       -0.37607
C          6.38934        0.62044       -4.83384
C          6.41373        0.52947       -3.45965
C          5.96441        1.73821       -2.95405
C          5.67294        2.53453       -3.98397
N          5.91245        1.88353       -5.21385
C          5.20704        3.95779       -3.89699
N          3.94714        4.07584       -3.13686
C          3.42364        5.46833       -3.04319
H          6.74135       -0.33103       -2.89223
H          6.69413       -0.15408       -5.52502
H          5.88523        1.99672       -1.90744
H          5.08194        4.31033       -4.93836
H          6.01660        4.52858       -3.40231
C          3.19243        6.09581       -4.43904
C          2.07079        5.42355       -2.31445
C          4.37179        6.37371       -2.21801
H          2.51068        5.45967       -5.04224
H          2.73701        7.10488       -4.34023
H          4.14015        6.24274       -4.99556
H          2.18912        5.00289       -1.29348
H          1.64632        6.44832       -2.21707
H          1.34389        4.79717       -2.87332
H          4.47701        5.98799       -1.18087
H          5.38129        6.45651       -2.66543
H          3.96857        7.40842       -2.16136
