96
speciation1481.ct
Na        -0.68042        6.46458       -0.19189
Mg        -1.54654        3.27396        3.80334
C         -0.61300        6.04208        4.65323
C         -2.27242        5.06331        6.03532
O         -1.57949        5.00455        4.80209
C          0.60665        5.92079        5.58535
C         -3.07440        6.36381        6.22369
H         -0.33607        6.10690        3.59207
H         -1.05237        7.05335        4.74972
H         -3.00446        4.23385        6.03678
H         -1.58903        4.88189        6.88992
H         -3.76399        6.51983        5.37123
H         -3.65032        6.31690        7.16804
H         -2.41608        7.25700        6.32436
H          1.11168        4.94117        5.46302
H          1.33222        6.73270        5.35933
H          0.30644        6.04488        6.64600
H         -4.27751        3.44148        2.73274
C         -4.97047        2.49318        4.48022
C         -3.86026        2.69676        3.42432
C         -6.33859        2.06756        3.87286
H         -4.68434        1.72676        5.22010
H         -5.11756        3.45079        5.01904
H         -7.06787        1.98955        4.70847
H         -6.71035        2.84225        3.16768
C         -6.32886        0.71041        3.15284
H         -3.83378        1.73096        2.89381
H         -5.70930        0.73681        2.23448
H         -5.95822       -0.09097        3.82763
H         -7.36397        0.44627        2.84090
C         -3.60911        5.62381        0.94652
C         -4.92638        5.93942        0.64280
C         -4.87114        6.90063       -0.34727
C         -3.51910        7.12097       -0.57958
N         -2.77082        6.32708        0.18033
C         -2.90710        8.09891       -1.50585
N         -1.44448        8.18612       -1.24711
C         -0.98424        9.24609       -0.31136
H         -5.81996        5.52429        1.09413
H         -3.28371        4.91192        1.67527
H         -5.70665        7.39298       -0.82408
H         -3.40803        9.07153       -1.37255
H         -3.09325        7.76482       -2.54698
C         -1.55141        9.02992        1.11023
C          0.54684        9.13620       -0.23992
C         -1.32877       10.66048       -0.81490
H         -1.27153        8.02701        1.50153
H         -1.13959        9.78385        1.81336
H         -2.65676        9.11754        1.12371
H          0.99238        9.23187       -1.25435
H          0.97756        9.92192        0.41776
H          0.84562        8.16259        0.18165
H         -0.91969       10.81855       -1.83472
H         -2.41726       10.86088       -0.82846
H         -0.88373       11.41982       -0.13515
Mg        -1.16125        5.27900        1.37023
C         -1.75069        0.69698        5.42733
C          0.47352        1.53244        5.31331
O         -0.86076        1.65444        4.83425
C         -1.84678        0.71708        6.96701
C          1.11488        0.14765        5.05532
H         -2.75481        0.86796        5.02856
H         -1.52088       -0.32952        5.07167
H          1.09085        2.28372        4.78646
H          0.53102        1.79120        6.39055
H          1.15654       -0.09527        3.97601
H          2.15164        0.13746        5.44742
H          0.57806       -0.67686        5.57278
H         -2.17758        1.70802        7.33154
H         -2.58452       -0.04878        7.30051
H         -0.88210        0.44246        7.44554
C          2.36216        6.05061       -0.57815
C          3.53592        5.46581       -0.16457
C          3.22016        4.69094        0.92999
C          1.85936        4.83582        1.14454
N          1.33936        5.68782        0.22154
C          1.13007        4.15310        2.29483
N         -0.27511        3.71141        2.03633
C         -0.39799        2.63041        1.02061
H          4.51632        5.58739       -0.60633
H          2.26389        6.72130       -1.42414
H          3.91155        4.09658        1.51362
H          1.74412        3.34203        2.72704
H          1.17139        4.88428        3.09548
C          0.44892        1.41004        1.41811
C         -1.84738        2.20366        1.01210
C         -0.06664        3.07705       -0.42381
H          0.19403        1.14238        2.45715
H          0.24128        0.54612        0.76152
H          1.53480        1.63366        1.35821
H         -2.51316        3.05248        0.75942
H         -2.04337        1.38214        0.29339
H         -2.02449        1.82095        2.01674
H         -0.65531        3.97900       -0.70301
H          1.00902        3.26412       -0.58398
H         -0.32732        2.27073       -1.14266
