68
speciation51.ct
Na         1.11146        0.06859        0.26874
Mg         1.15293       -2.27017        2.24972
C          0.41145        2.71790       -1.06645
C         -1.08383        2.16176        0.70658
O         -0.18384        1.68759       -0.28396
C          1.10460        3.83330       -0.27182
C         -2.35755        2.79372        0.11481
H          1.17691        2.23495       -1.69810
H         -0.32329        3.14559       -1.78140
H         -1.41185        1.29706        1.31668
H         -0.59183        2.85603        1.41802
H         -2.90963        2.05168       -0.49839
H         -3.02027        3.13663        0.93844
H         -2.12626        3.68073       -0.50919
H          1.84151        3.40078        0.43097
H          1.63111        4.51665       -0.97124
H          0.37291        4.45677        0.28528
C         -0.39117       -2.96128        4.77136
C         -1.76772       -3.03780        4.89236
C         -2.29732       -2.71568        3.65523
C         -1.21824       -2.45756        2.83418
N         -0.07171       -2.62116        3.50951
C         -1.26686       -2.05946        1.35701
N          0.09085       -1.94992        0.72766
C          0.37939       -3.00785       -0.27549
H         -2.32473       -3.30552        5.78075
H          0.32973       -3.15610        5.55292
H         -3.34520       -2.68762        3.38485
H         -1.80021       -1.09554        1.25442
H         -1.89437       -2.82695        0.86680
C         -0.58850       -2.93100       -1.48581
C          1.78052       -2.73996       -0.77922
C          0.35423       -4.43089        0.33345
H         -0.57799       -1.91480       -1.93233
H         -0.28916       -3.66193       -2.26933
H         -1.63426       -3.18081       -1.21893
H          2.52588       -2.80120        0.04230
H          2.06847       -3.44794       -1.58786
H          1.76137       -1.70955       -1.16573
H          1.07511       -4.51066        1.17508
H         -0.65099       -4.71552        0.70308
H          0.64532       -5.18196       -0.43601
Na         3.62874        3.64507       -2.54170
C          2.84450        1.00099       -4.00558
C          2.86159       -0.37092       -3.89928
C          3.42352       -0.66071       -2.67679
C          3.67615        0.54731       -2.06400
N          3.35872        1.56058       -2.88779
C          4.26490        0.75374       -0.70529
N          3.42508        0.20905        0.39358
C          4.02449        0.40173        1.75353
H          2.51426       -1.08304       -4.63542
H          2.48755        1.56712       -4.85411
H          3.61984       -1.64230       -2.27837
H          4.40331        1.84345       -0.57982
H          5.25679        0.25773       -0.71923
C          4.26030        1.89607        2.08606
C          3.05266       -0.17161        2.79390
C          5.37305       -0.35051        1.90505
H          3.32148        2.47686        2.00132
H          4.64396        2.00753        3.12493
H          5.03293        2.35117        1.43221
H          2.93411       -1.26365        2.64693
H          3.43884       -0.00725        3.82580
H          2.06009        0.31894        2.71234
H          5.24803       -1.43282        1.69261
H          6.16114        0.05566        1.23849
H          5.76490       -0.24389        2.94139
