110
speciation1860.ct
Na        -0.98890       -1.82436       -6.45818
Mg        -3.15032        1.80089       -2.18056
C          1.95937       -2.08972       -5.56469
C          1.65468       -3.45787       -7.50394
O          1.08153       -2.50522       -6.60208
C          3.32613       -1.56984       -6.05095
C          2.01503       -4.80498       -6.85923
H          1.46630       -1.23716       -5.05526
H          2.08661       -2.89011       -4.80551
H          0.94603       -3.65160       -8.32567
H          2.53417       -3.03152       -8.03198
H          1.10866       -5.29786       -6.45359
H          2.46955       -5.47261       -7.62489
H          2.76547       -4.68619       -6.05052
H          3.19177       -0.77542       -6.81489
H          3.89570       -1.15501       -5.19448
H          3.94880       -2.38652       -6.47749
H         -5.38254        2.10080       -3.61011
C         -6.03383        0.40190       -2.48635
C         -4.93101        1.19418       -3.16285
C         -6.67103        1.15198       -1.33552
H         -6.80274        0.14535       -3.25095
H         -5.61527       -0.52773       -2.08698
H         -5.89219        1.37040       -0.57939
H         -7.11839        2.10127       -1.70013
C         -7.74798        0.28036       -0.69754
H         -4.55904        0.51884       -3.95091
H         -8.54701        0.05798       -1.43755
H         -7.30385       -0.67962       -0.35117
H         -8.18688        0.80680        0.17048
C         -3.82807       -2.56872       -5.20835
C         -4.69353       -2.74275       -4.14962
C         -4.04313       -2.28057       -3.03722
C         -2.82611       -1.78364       -3.46793
N         -2.66406       -2.00421       -4.81175
C         -1.79210       -1.20135       -2.54294
N         -2.26989       -0.12726       -1.60071
C         -1.22764        0.20483       -0.59287
H         -5.67868       -3.18859       -4.17492
H         -4.05042       -2.86948       -6.22112
H         -4.42316       -2.31667       -2.02300
H         -1.43761       -2.06712       -1.95202
H         -0.95404       -0.83444       -3.18025
C          0.06761        0.68150       -1.27463
C         -1.77999        1.34194        0.21740
C         -0.92178       -0.93602        0.40728
H         -0.18891        1.41338       -2.05347
H          0.75513        1.15685       -0.54549
H          0.60302       -0.15240       -1.76711
H         -2.76200        1.07828        0.67557
H         -1.08364        1.67574        1.01465
H         -1.86841        2.15214       -0.50467
H         -1.84466       -1.28987        0.91506
H         -0.41219       -1.79630       -0.06474
H         -0.23374       -0.56059        1.19903
Na        -3.82486       -0.95345       -0.35556
Mg        -2.81078        4.21768       -7.70981
C         -2.42169       -2.12761       -9.03960
C         -0.65725       -0.61899       -9.35738
O         -1.54658       -1.20143       -8.41366
C         -1.72796       -3.39926       -9.53038
C          0.14009        0.50745       -8.72225
H         -3.17283       -2.42931       -8.28630
H         -3.00196       -1.64719       -9.85927
H          0.06167       -1.35931       -9.76760
H         -1.23334       -0.16084      -10.19466
H          0.80842        0.10038       -7.93660
H          0.76313        1.00005       -9.50149
H         -0.54208        1.26484       -8.28241
H         -1.18472       -3.87118       -8.69195
H         -2.48711       -4.11994       -9.89727
H         -1.03506       -3.18770      -10.37115
H         -4.18352        4.32551       -1.19885
C         -2.88512        4.28227        0.54507
C         -3.73103        3.54184       -0.55866
C         -1.64551        5.08398        0.09834
H         -3.54489        4.98214        1.10447
H         -2.53475        3.55152        1.29946
H         -1.14640        5.49532        1.00628
H         -0.90468        4.42470       -0.38581
C         -1.98955        6.26557       -0.80115
H         -4.54531        3.06049        0.01636
H         -2.43343        5.91316       -1.75366
H         -2.70238        6.93986       -0.28050
H         -1.06835        6.84446       -1.03029
C         -0.92826        3.48960       -3.30779
C         -0.37527        4.03159       -4.44520
C         -1.17976        3.64709       -5.49058
C         -2.19151        2.88156       -4.94281
N         -2.04344        2.78598       -3.59255
C         -3.32348        2.25901       -5.70746
N         -3.17753        2.38098       -7.16366
C         -4.33683        1.90898       -7.96707
H          0.51562        4.64240       -4.50363
H         -0.52146        3.60916       -2.32227
H         -1.03103        3.90942       -6.52923
H         -3.30110        1.18441       -5.46735
H         -4.24754        2.76117       -5.37315
C         -5.52162        2.87905       -7.82342
C         -3.87693        1.88923       -9.42771
C         -4.79017        0.48223       -7.57536
H         -5.21038        3.91388       -8.07952
H         -6.34648        2.57855       -8.50459
H         -5.93303        2.87551       -6.79356
H         -3.02413        1.19177       -9.54918
H         -4.69758        1.55732      -10.09913
H         -3.54239        2.90043       -9.74570
H         -3.95822       -0.23916       -7.68046
H         -5.16766        0.43537       -6.53285
H         -5.62324        0.15377       -8.23455
