110
speciation2541.ct
Na         4.37613       -0.41147        1.99687
Mg         2.08627        4.64064       -1.07151
C          3.42253        7.23809       -0.92163
C          4.26391        5.68518       -2.52111
O          3.59170        5.86587       -1.27927
C          2.80287        8.16533       -1.98227
C          5.72245        6.16582       -2.49241
H          2.77802        7.27683       -0.02377
H          4.39457        7.66098       -0.58841
H          4.29265        4.60062       -2.73198
H          3.70565        6.14034       -3.36566
H          6.29205        5.62845       -1.70555
H          6.19515        5.97695       -3.47455
H          5.79631        7.25778       -2.32022
H          1.80448        7.81443       -2.28279
H          2.68837        9.18313       -1.55387
H          3.44706        8.26925       -2.87897
H          0.42380        6.19596       -2.51547
C         -0.76879        4.55467       -3.16159
C          0.60095        5.12497       -2.70080
C         -1.87648        4.57946       -2.09626
H         -1.11723        5.12533       -4.04830
H         -0.67214        3.51689       -3.53306
H         -2.77570        4.09652       -2.53991
H         -1.58474        3.99387       -1.19669
C         -2.26829        5.99886       -1.69661
H          1.28340        5.02419       -3.57053
H         -1.44504        6.49119       -1.14080
H         -2.51354        6.59325       -2.60328
H         -3.16711        5.96741       -1.04535
C          6.22619       -0.34010       -0.36547
C          6.67970        0.30138       -1.49161
C          5.96132        1.47264       -1.58898
C          5.06200        1.49574       -0.53029
N          5.25879        0.38963        0.23286
C          4.01304        2.59188       -0.25256
N          2.91436        2.72330       -1.26879
C          2.00674        1.52407       -1.32721
H          7.45304       -0.04903       -2.16532
H          6.58032       -1.29764        0.00031
H          6.09816        2.20999       -2.35742
H          3.58289        2.45415        0.75544
H          4.57586        3.54657       -0.21865
C          1.28524        1.27860        0.01364
C          0.98500        1.82027       -2.39299
C          2.68431        0.19622       -1.77747
H          0.79599        2.20481        0.36775
H          0.51253        0.48721       -0.09733
H          1.99589        0.92587        0.78957
H          1.48530        2.00728       -3.37253
H          0.24604        0.99899       -2.51766
H          0.46634        2.69869       -2.02093
H          3.27164        0.31906       -2.71102
H          3.30790       -0.26377       -0.99837
H          1.91361       -0.58207       -1.97847
Na         4.22436        2.33171       -3.20463
Mg         5.11521        0.49850       -9.37017
C          6.26095        2.27307      -11.23279
C          3.92225        1.98150      -11.70240
O          5.08070        1.50713      -11.02700
C          6.10368        3.78618      -11.01289
C          4.07229        1.98067      -13.23693
H          7.01336        1.91553      -10.50010
H          6.69338        2.05664      -12.23292
H          3.07236        1.31207      -11.46114
H          3.63633        2.98846      -11.33331
H          4.17798        0.94506      -13.62381
H          3.17346        2.44231      -13.69789
H          4.94486        2.57753      -13.57519
H          5.70449        3.98935       -9.99784
H          7.09223        4.27955      -11.11971
H          5.43433        4.24046      -11.77290
H          0.80107        6.08963        0.84521
C          1.92638        4.93390        2.27502
C          1.15215        5.04008        0.93824
C          1.11390        5.35406        3.53004
H          2.29315        3.89507        2.42130
H          2.80712        5.60813        2.22824
H          1.78326        5.30181        4.41926
H          0.76806        6.40746        3.44151
C         -0.09281        4.46519        3.83072
H          0.26756        4.37718        0.98468
H         -0.85459        4.52907        3.02986
H          0.21989        3.40877        3.97040
H         -0.57265        4.80455        4.77480
C          5.43001       -1.84984       -7.57404
C          5.35882       -2.25966       -6.25714
C          5.02315       -1.14909       -5.51372
C          4.90614       -0.10755       -6.41118
N          5.15060       -0.53613       -7.67065
C          4.56097        1.30879       -6.06031
N          5.53435        1.94012       -5.14047
C          6.83655        2.38703       -5.71018
H          5.52945       -3.26503       -5.88027
H          5.66914       -2.48079       -8.42022
H          4.88028       -1.10761       -4.44083
H          3.56847        1.29214       -5.55881
H          4.41913        1.89562       -6.98527
C          6.58615        3.21466       -6.99437
C          7.53617        3.28075       -4.67976
C          7.79798        1.19135       -5.96200
H          5.66618        3.82776       -6.87101
H          7.41229        3.92485       -7.19938
H          6.46211        2.55528       -7.88020
H          7.79035        2.72907       -3.76405
H          8.50179        3.65905       -5.11152
H          6.90225        4.14428       -4.43384
H          8.22503        0.79659       -5.00952
H          7.30785        0.30561       -6.42193
H          8.62332        1.45336       -6.64097
