110
speciation2123.ct
Na         7.30986       -8.64285       -1.84054
Mg         8.34509       -3.04069       -1.01650
C         10.29778       -8.37295       -2.56201
C          9.25897       -6.34867       -2.05538
O          9.16321       -7.50387       -2.64690
C         10.82219       -8.66505       -1.14826
C         10.22129       -5.48867       -2.77753
H          9.98100       -9.34389       -2.99711
H         11.12116       -8.02074       -3.21949
H          8.24667       -5.90999       -2.20563
H          9.46578       -6.54598       -0.99703
H          9.93633       -5.33607       -3.84119
H         10.04390       -4.60925       -2.20903
H         11.27425       -5.82935       -2.68403
H         10.00401       -9.02999       -0.49825
H         11.60908       -9.44664       -1.20230
H         11.28580       -7.76500       -0.69634
H          8.52521       -4.82511        1.09938
C         10.61283       -4.78285        0.50422
C          9.13528       -4.42965        0.26809
C         11.15185       -3.99114        1.68048
H         10.71442       -5.87046        0.72940
H         11.24098       -4.56957       -0.38349
H         12.21047       -4.27853        1.84950
H         11.12352       -2.91820        1.42637
C         10.33989       -4.24058        2.95390
H          8.59877       -4.76041       -0.57249
H          9.28248       -3.92554        2.83701
H         10.36741       -5.32015        3.21624
H         10.74926       -3.63234        3.77796
C          2.91830       -9.74090       -4.08433
C          2.99543      -11.03273       -4.58432
C          3.88627      -11.71555       -3.78781
C          4.31041      -10.80562       -2.85053
N          3.70985       -9.61583       -3.00342
C          5.26883      -11.05710       -1.76501
N          5.41656       -9.80638       -1.01681
C          5.83595       -9.96982        0.40931
H          2.45473      -11.43970       -5.42675
H          2.29884       -8.94806       -4.47322
H          4.18536      -12.75465       -3.86912
H          6.25527      -11.37729       -2.16376
H          4.83946      -11.87511       -1.16143
C          7.23966      -10.60702        0.49009
C          5.90246       -8.57608        1.05549
C          4.84778      -10.81858        1.25216
H          7.97553       -9.99299       -0.06282
H          7.58028      -10.67735        1.54667
H          7.24617      -11.63108        0.06364
H          4.89668       -8.11039        1.06115
H          6.24153       -8.64692        2.11333
H          6.60550       -7.91461        0.50836
H          3.82820      -10.38162        1.23274
H          4.79523      -11.87736        0.93339
H          5.18999      -10.85531        2.31087
Na         4.19706       -8.12274       -1.51221
Mg         6.00100       -5.72918       -2.27513
C         10.84336       -2.49738       -3.08312
C          8.84188       -1.30732       -3.42380
O          9.41016       -2.46533       -2.80657
C         11.66810       -1.26816       -2.73174
C          8.77801       -1.41329       -4.96046
H         11.38222       -3.24177       -2.48291
H         11.02517       -2.81767       -4.13796
H          7.82461       -1.14526       -3.03424
H          9.34255       -0.37446       -3.11534
H          8.21593       -2.31490       -5.28252
H          8.27485       -0.51371       -5.37227
H          9.79177       -1.45033       -5.41185
H         11.48385       -1.01134       -1.67120
H         12.74588       -1.51983       -2.85988
H         11.45928       -0.41889       -3.40729
H          8.54905       -1.75620        1.25960
C          8.58979        0.07689        0.09562
C          8.89546       -1.41255        0.26286
C          9.16951        0.87319        1.28180
H          9.00342        0.44549       -0.86683
H          7.49038        0.20902        0.09514
H          8.72373        0.45419        2.20767
H         10.27743        0.77003        1.35318
C          8.81037        2.35818        1.22144
H          9.99922       -1.50571        0.20747
H          9.45938        2.89782        0.49973
H          7.74671        2.49461        0.93333
H          8.95361        2.80879        2.22762
C          2.52728       -6.34419        0.01983
C          2.20082       -5.27638        0.83849
C          3.33755       -4.52907        0.94843
C          4.32270       -5.12826        0.17853
N          3.80044       -6.27527       -0.37636
C          5.75081       -4.59255        0.11324
N          6.25437       -4.10566       -1.20597
C          5.44202       -3.10303       -1.92370
H          1.24532       -5.08531        1.31007
H          1.84263       -7.14558       -0.24226
H          3.44969       -3.62964        1.52687
H          5.87013       -3.77754        0.85425
H          6.40648       -5.41553        0.45657
C          5.56175       -1.79622       -1.14217
C          6.05613       -3.06919       -3.31971
C          3.94552       -3.42590       -2.17208
H          6.62215       -1.60021       -0.93203
H          5.11975       -0.93765       -1.68013
H          5.03990       -1.89476       -0.16127
H          5.81839       -4.00478       -3.87069
H          5.69263       -2.20175       -3.90934
H          7.14290       -3.10797       -3.25106
H          3.81743       -4.40970       -2.67394
H          3.51479       -2.64912       -2.84241
H          3.31252       -3.37971       -1.27545
