95
speciation1525.ct
Na         0.90035       -0.41033        0.85535
Mg         4.04278       -0.94714        1.85280
C          4.59249       -0.28773        4.72400
C          2.35025        0.11157        4.04294
O          3.70539       -0.04527        3.62621
C          4.16060       -1.35209        5.75484
C          2.12163        1.44602        4.78052
H          5.56567       -0.60866        4.30700
H          4.80102        0.66880        5.25320
H          1.71219        0.09012        3.14628
H          1.96899       -0.74472        4.63241
H          2.45651        2.30779        4.16678
H          1.04311        1.57683        5.00686
H          2.67411        1.47483        5.74272
H          3.96251       -2.32053        5.25515
H          4.96828       -1.49211        6.50424
H          3.26558       -1.03587        6.33384
H          3.61009       -3.37644        3.04494
C          3.17121       -3.93507        0.99978
C          3.15282       -2.91588        2.14515
C          2.34513       -5.19806        1.28398
H          2.71906       -3.48183        0.11716
H          4.22019       -4.21078        0.76962
H          2.77692       -5.75259        2.14320
H          1.29621       -4.91810        1.52816
C          2.31636       -6.10248        0.04637
H          2.09603       -2.65548        2.37513
H          1.85052       -5.56781       -0.81271
H          3.34597       -6.40431       -0.23766
H          1.71897       -7.01550        0.25090
C          5.75218       -0.57474       -3.20916
C          6.06726       -1.73532       -2.53537
C          5.03432       -1.96725       -1.65836
C          4.14215       -0.92528       -1.82015
N          4.56688       -0.09135       -2.78958
C          2.84470       -0.79218       -1.08839
N          2.91779       -0.07227        0.21182
C          2.98164        1.41570        0.06879
H          6.94827       -2.34839       -2.67517
H          6.35431       -0.11081       -3.97879
H          4.94649       -2.80564       -0.98303
H          2.42700       -1.78895       -0.93734
H          2.06752       -0.40619       -1.77062
C          1.92355        1.98401       -0.91876
C          2.66237        2.02706        1.42579
C          4.38554        1.89245       -0.33097
H          0.90030        1.65648       -0.62987
H          1.94575        3.09329       -0.91755
H          2.10990        1.68853       -1.97067
H          3.43861        1.72871        2.14490
H          2.66471        3.13621        1.38039
H          1.64880        1.71838        1.74957
H          5.14480        1.37183        0.27818
H          4.59073        1.73627       -1.39427
H          4.48699        2.98930       -0.18700
Na         1.00430        3.39862       -4.14184
Mg         3.84139        1.57021       -3.60993
H          6.62371       -1.67687        2.41597
C          7.44782        0.00669        1.35117
C          6.34486       -1.08561        1.51540
C          8.87966       -0.59305        1.23124
H          7.25367        0.60254        0.43532
H          7.42532        0.68165        2.23159
H          9.11326       -1.19155        2.13824
H          8.93956       -1.26238        0.34484
C          9.97475        0.47806        1.08613
H          6.42676       -1.75551        0.63869
H          9.83183        1.07537        0.16060
H          9.98432        1.16081        1.96072
H         10.97597       -0.00811        1.02332
C          3.37794        7.78212       -4.98500
C          2.09971        7.48916       -4.58321
C          2.09753        6.20701       -4.04729
C          3.34851        5.72406       -4.14856
N          4.21167        6.69158       -4.72167
C          3.79961        4.34245       -3.72622
N          3.11589        3.23177       -4.43028
C          3.32629        3.12811       -5.91195
H          1.24537        8.15332       -4.66068
H          3.69772        8.70175       -5.45022
H          1.24291        5.68569       -3.65244
H          3.59775        4.23871       -2.64023
H          4.89710        4.25380       -3.85623
C          4.82296        3.05471       -6.27860
C          2.64493        1.83160       -6.38247
C          2.66953        4.28472       -6.71336
H          5.31854        2.21878       -5.74248
H          4.94488        2.89347       -7.37261
H          5.34522        4.00368       -6.03767
H          1.55572        1.86431       -6.16199
H          2.76553        1.70249       -7.48179
H          3.08489        0.94821       -5.87700
H          1.58935        4.37972       -6.47453
H          3.16497        5.25730       -6.56436
H          2.76369        4.09887       -7.80659
