96
speciation1627.ct
Na         0.94201       -0.04587        0.06733
Mg        -2.25830        0.11847       -1.70608
C         -4.66326        2.22119       -1.32853
C         -4.09304        1.53444       -3.43775
O         -3.60210        1.64861       -2.11548
C         -5.84279        1.26621       -1.02031
C         -3.04073        0.95722       -4.32773
H         -4.24440        2.66407       -0.41016
H         -5.07638        3.14371       -1.79845
H         -4.96382        0.84855       -3.50154
H         -4.34115        2.53784       -3.84810
H         -2.84056       -0.08148       -3.99080
H         -3.41158        0.90911       -5.36929
H         -2.13419        1.59559       -4.28744
H         -5.50552        0.29761       -0.60216
H         -6.53133        1.74583       -0.29152
H         -6.44531        1.05991       -1.92792
H         -0.66677       -0.14689       -4.01955
C          0.60966       -1.22808       -2.70951
C         -0.43697       -0.11808       -2.94111
C          0.11048       -2.66093       -2.93573
H          1.47087       -1.04117       -3.38927
H          1.00045       -1.18344       -1.68251
H          0.96560       -3.34884       -2.75011
H         -0.69285       -2.90824       -2.21110
C         -0.38200       -2.90541       -4.35874
H          0.05897        0.85407       -2.73520
H         -1.28279       -2.29454       -4.56968
H          0.41722       -2.65863       -5.09026
H         -0.65318       -3.97550       -4.47624
C         -4.07517       -2.29226       -2.18019
C         -4.31144       -3.38089       -1.36284
C         -3.54189       -3.20245       -0.22594
C         -2.87358       -2.00991       -0.40164
N         -3.20809       -1.46010       -1.57957
C         -1.89588       -1.37145        0.56204
N         -1.42799       -0.04587        0.06733
C         -1.66058        1.08179        1.00290
H         -4.97138       -4.21244       -1.56864
H         -4.50920       -2.12285       -3.15731
H         -3.48561       -3.86179        0.62866
H         -1.02328       -2.04328        0.69276
H         -2.40385       -1.30840        1.54207
C         -0.89204        0.92125        2.33253
C         -1.14307        2.34240        0.28602
C         -3.14456        1.20370        1.37341
H          0.17753        0.75673        2.16100
H         -1.02615        1.82759        2.96487
H         -1.26085        0.05585        2.92158
H         -1.64548        2.48627       -0.69133
H         -1.29588        3.25221        0.90399
H         -0.05171        2.24400        0.08946
H         -3.72917        0.89509        0.51431
H         -3.45851        0.48727        2.15724
H         -3.39283        2.22056        1.74869
Mg         3.95478       -1.84677       -0.45866
C          4.61710       -4.55983       -0.09077
C          2.30932       -3.98109        0.13243
O          3.66069       -3.55846        0.22681
C          4.61909       -5.03764       -1.54863
C          1.91192       -4.90281        1.28844
H          5.62561       -4.15230        0.13578
H          4.50719       -5.41981        0.59705
H          1.67038       -3.07545        0.20931
H          2.06377       -4.43930       -0.84275
H          2.08760       -4.39523        2.26005
H          0.83649       -5.16312        1.20420
H          2.48191       -5.85319        1.26559
H          3.63384       -5.40437       -1.89179
H          5.31880       -5.89664       -1.63391
H          4.96525       -4.23337       -2.22513
C          5.56159       -1.33310       -3.01548
C          5.83568       -0.17735       -3.72363
C          5.19972        0.85460       -3.05636
C          4.57610        0.27538       -1.97696
N          4.79358       -1.04546       -1.94644
C          3.75937        0.95369       -0.92712
N          3.31201       -0.04587        0.06733
C          3.70694        0.23436        1.46909
H          6.43579       -0.09838       -4.61972
H          5.91173       -2.32535       -3.26078
H          5.20736        1.90422       -3.32772
H          2.87275        1.42509       -1.40110
H          4.38310        1.75846       -0.49353
C          3.14998        1.59367        1.95657
C          3.10808       -0.88025        2.34171
C          5.24209        0.21787        1.63835
H          2.06080        1.64880        1.80883
H          3.36810        1.74058        3.03662
H          3.58968        2.45423        1.41628
H          3.51490       -1.86577        2.04259
H          3.35376       -0.72353        3.41405
H          2.00330       -0.91318        2.23425
H          5.66547       -0.73968        1.26970
H          5.72993        1.04875        1.08937
H          5.51292        0.33814        2.71011
