110
speciation1986.ct
Na        -0.62124       -6.05899        0.57358
Mg        -3.10602       -2.01625       -1.82118
C          2.00300       -4.42407        0.50405
C          2.60158       -6.73782        0.70779
O          1.54316       -5.76303        0.68012
C          3.00903       -4.19033       -0.63501
C          3.49063       -6.60923        1.95038
H          1.10751       -3.82459        0.24555
H          2.38322       -4.02464        1.46370
H          2.15590       -7.74719        0.71633
H          3.20885       -6.70928       -0.21926
H          2.89995       -6.80018        2.86977
H          4.31509       -7.35281        1.89756
H          3.96177       -5.60673        2.02289
H          2.61777       -4.58263       -1.59709
H          3.19695       -3.10093       -0.74199
H          3.99235       -4.65822       -0.41361
H         -4.87547       -3.29481       -3.28923
C         -2.92828       -3.81374       -4.11595
C         -3.90538       -2.80686       -3.52340
C         -2.66002       -4.95673       -3.13229
H         -3.35603       -4.22110       -5.05811
H         -1.97606       -3.29010       -4.34919
H         -2.23604       -4.54893       -2.18817
H         -3.61364       -5.47927       -2.89961
C         -1.67908       -5.96714       -3.72105
H         -4.08092       -1.98235       -4.24601
H         -2.08555       -6.39903       -4.66067
H         -0.70399       -5.47993       -3.93555
H         -1.51462       -6.79088       -2.99635
C         -3.35469       -5.17046        2.00829
C         -4.22165       -4.19424        2.43965
C         -3.71788       -2.99630        1.99848
C         -2.56345       -3.29404        1.29269
N         -2.31986       -4.63996        1.31065
C         -1.65007       -2.25679        0.70346
N         -2.32626       -1.24502       -0.16068
C         -1.41817       -0.23621       -0.73183
H         -5.10875       -4.35641        3.04199
H         -3.49435       -6.21562        2.22592
H         -4.14264       -2.02338        2.19931
H         -1.19974       -1.74556        1.57765
H         -0.87416       -2.81120        0.15519
C         -0.32087       -0.89746       -1.60165
C         -2.27653        0.65662       -1.64112
C         -0.78730        0.62665        0.37797
H         -0.78663       -1.54530       -2.37701
H          0.30237       -0.13021       -2.10379
H          0.37312       -1.51883       -0.99996
H         -3.07885        1.15432       -1.05561
H         -1.65774        1.43403       -2.13622
H         -2.76157        0.04575       -2.43461
H         -1.58453        1.02741        1.03108
H         -0.08979        0.04057        1.00939
H         -0.21630        1.47453       -0.05144
Na        -4.01952       -0.12254        1.05990
Mg        -9.23119        1.26419        0.99997
C         -1.76140       -8.69693        1.17209
C         -0.37729       -8.77957       -0.75783
O         -1.29575       -8.01132        0.01416
C         -0.66825       -9.19271        2.12665
C         -1.01082      -10.02782       -1.39797
H         -2.37607       -7.98298        1.74015
H         -2.46437       -9.51373        0.90198
H         -0.00871       -8.14389       -1.58761
H          0.51656       -9.06675       -0.17422
H         -1.83253       -9.74141       -2.08694
H         -0.23853      -10.57936       -1.97593
H         -1.40395      -10.73286       -0.63637
H          0.01088       -8.35688        2.39432
H         -1.13985       -9.58715        3.05122
H         -0.08751      -10.02717        1.68300
H         -9.40506        3.89145        0.96765
C        -11.29918        3.16627        1.76536
C        -10.13887        3.07815        0.78258
C        -10.80476        3.04007        3.20915
H        -11.81714        4.14068        1.62957
H        -12.01328        2.34410        1.54335
H        -10.27927        2.06897        3.34373
H        -10.09233        3.86388        3.43421
C        -11.97097        3.11464        4.19259
H        -10.51911        3.16406       -0.25708
H        -12.50546        4.08297        4.08563
H        -12.68567        2.28396        4.00862
H        -11.59097        3.03241        5.23259
C         -8.85463       -1.60226        0.62979
C         -8.21128       -2.71941        1.09844
C         -7.27452       -2.27182        2.00997
C         -7.36936       -0.89256        2.04622
N         -8.34575       -0.50531        1.21204
C         -6.61280        0.03191        2.97362
N         -5.71279        0.99993        2.28047
C         -5.04903        1.95841        3.21072
H         -8.44075       -3.74402        0.83657
H         -9.68945       -1.58573       -0.06003
H         -6.63771       -2.88741        2.61102
H         -6.02295       -0.61011        3.65583
H         -7.38732        0.56496        3.56078
C         -4.29354        1.22433        4.34808
C         -4.02602        2.77091        2.40781
C         -6.06476        2.94901        3.82500
H         -3.60972        0.45497        3.92915
H         -3.69511        1.93883        4.95242
H         -4.99542        0.73244        5.05586
H         -4.52122        3.32945        1.58706
H         -3.50408        3.50220        3.06566
H         -3.26434        2.10165        1.97181
H         -6.60069        3.50388        3.02667
H         -6.81289        2.44359        4.46763
H         -5.54109        3.68540        4.47399
