96
speciation987.ct
Na         0.89954       -0.29506        0.34120
Mg        -3.82073        1.57875        0.52465
C          1.08620        0.29026        3.60581
C         -1.10123        0.68667        3.20966
O          0.14058        0.37425        2.53265
C          2.48401        0.14835        3.12716
C         -2.36459        0.21182        2.55146
H          1.07935        1.24185        4.20100
H          0.88195       -0.57681        4.27561
H         -1.18264        0.20169        4.21804
H         -1.17371        1.78533        3.35077
H         -2.44238       -0.87676        2.54601
H         -3.20391        0.54283        3.19957
H         -2.44839        0.63911        1.54624
H          2.67768        1.03004        2.51965
H          3.18566        0.16301        3.99445
H          2.59813       -0.79628        2.57020
H         -5.21907       -0.30400        1.67075
C         -6.72765        1.16272        1.10358
C         -5.34632        0.79894        1.63194
C         -6.93531        0.66134       -0.32516
H         -7.49318        0.71231        1.77352
H         -6.83787        2.26853        1.12819
H         -6.17710        1.12315       -0.99494
H         -6.81809       -0.44386       -0.35706
C         -8.33258        1.02340       -0.82504
H         -5.26660        1.20821        2.66016
H         -9.10629        0.55268       -0.18112
H         -8.47409        2.12534       -0.81444
H         -8.46586        0.65725       -1.86438
C          1.15524        1.04036       -2.63723
C          0.63520        1.62784       -3.78290
C         -0.69104        1.82075       -3.54534
C         -0.92567        1.36470       -2.26688
N          0.20709        0.87509       -1.67329
C         -2.28119        1.40892       -1.67498
N         -2.33254        2.33944       -0.55549
C         -2.38208        3.78825       -0.70468
H          1.14675        1.88299       -4.70436
H          2.19226        0.74633       -2.53660
H         -1.41898        2.25056       -4.22765
H         -3.06954        1.64445       -2.41602
H         -2.48913        0.38536       -1.29864
C         -3.58723        4.18525       -1.57321
C         -2.53288        4.31965        0.72928
C         -1.06440        4.34217       -1.28392
H         -4.51408        3.72863       -1.17105
H         -3.70555        5.29115       -1.61016
H         -3.44351        3.83138       -2.61350
H         -1.63978        4.02982        1.33097
H         -2.63135        5.42203        0.75226
H         -3.42072        3.86257        1.22003
H         -0.19578        3.91106       -0.73984
H         -0.95673        4.10935       -2.35940
H         -1.02302        5.44801       -1.18257
Mg        -0.75485        1.92910        0.51982
C         -0.81028       -2.86084       -0.38657
C          1.10002       -3.45364        0.89555
O          0.52287       -2.51126       -0.00818
C         -1.75412       -3.17967        0.77602
C          1.22423       -4.89012        0.30373
H         -1.22673       -1.99269       -0.93315
H         -0.81784       -3.69945       -1.12079
H          2.12222       -3.14639        1.13583
H          0.55846       -3.50769        1.85544
H          1.85362       -4.88990       -0.62032
H          1.69917       -5.56705        1.04157
H          0.24388       -5.34090        0.05513
H         -1.62958       -2.39365        1.51900
H         -2.80890       -3.22626        0.43096
H         -1.51766       -4.14512        1.27022
C          4.00340       -1.11425        0.02775
C          5.34357       -0.78232        0.06981
C          5.39804        0.57263        0.30579
C          4.08941        1.01090        0.37368
N          3.21559       -0.03420        0.22950
C          3.70410        2.43665        0.67351
N          4.54395        3.37893       -0.07926
C          4.25512        4.81496        0.14468
H          6.18776       -1.44196       -0.04943
H          3.63551       -2.11694       -0.13056
H          6.29269        1.17119        0.40468
H          2.62379        2.55943        0.45216
H          3.90672        2.60016        1.74605
C          4.28306        5.21690        1.63857
C          5.34082        5.62715       -0.58387
C          2.88337        5.16794       -0.46661
H          5.27223        4.97771        2.09312
H          4.10882        6.30606        1.74605
H          3.48898        4.70701        2.22478
H          5.38735        5.34612       -1.65823
H          5.13085        6.71816       -0.51444
H          6.33898        5.43742       -0.13224
H          2.85791        4.87673       -1.54008
H          2.06342        4.64218        0.05871
H          2.68238        6.25718       -0.38583
