110
speciation2227.ct
Na         1.36017       -0.17863       -0.16193
Mg        -2.28975       -0.39628       -2.03788
C          1.02340        0.07294        2.82830
C         -1.15677        0.01299        1.87137
O          0.23077        0.30168        1.66877
C          0.88748       -1.32064        3.46238
C         -1.84703        0.97022        2.86725
H          2.07541        0.17749        2.51277
H          0.86451        0.87222        3.58450
H         -1.68776        0.12489        0.90464
H         -1.32170       -1.03895        2.18294
H         -1.83885        2.00976        2.48241
H         -2.90599        0.65747        3.01059
H         -1.37212        0.94865        3.86790
H          1.04933       -2.10821        2.69624
H          1.64256       -1.43879        4.26605
H         -0.10559       -1.46126        3.93918
H         -1.71532        1.71416       -3.56473
C         -3.72251        2.18436       -3.61819
C         -2.62988        1.12518       -3.56255
C         -3.66710        3.10279       -2.39533
H         -3.55441        2.80142       -4.53324
H         -4.71475        1.69944       -3.69841
H         -3.84247        2.50380       -1.47982
H         -2.66573        3.58507       -2.31927
C         -4.72506        4.19632       -2.49637
H         -2.65201        0.54910       -4.51186
H         -4.53227        4.83823       -3.38358
H         -5.73467        3.74325       -2.58705
H         -4.69515        4.83046       -1.58603
C          0.79221        3.04779       -3.61679
C          0.99734        2.66900       -4.92518
C          0.86572        1.30504       -4.96431
C          0.56195        0.89793       -3.67446
N          0.55352        1.95411       -2.84593
C          0.29433       -0.54719       -3.34198
N         -0.15579       -0.87294       -1.95206
C         -0.32314       -2.35029       -1.78069
H          1.19155        3.31739       -5.77044
H          0.80803        4.05937       -3.24850
H          0.94405        0.67353       -5.84017
H          1.19390       -1.11099       -3.62561
H         -0.51172       -0.83135       -4.04534
C          0.95872       -3.20517       -1.96194
C         -0.83662       -2.59303       -0.35426
C         -1.35574       -2.91732       -2.77286
H          1.73093       -2.96962       -1.20531
H          0.71819       -4.28153       -1.82462
H          1.37446       -3.13400       -2.98857
H         -1.79556       -2.06199       -0.19005
H         -0.99365       -3.67426       -0.15990
H         -0.08674       -2.21798        0.37391
H         -2.23577       -2.28642       -2.72320
H         -1.00021       -2.90708       -3.82362
H         -1.61913       -3.97082       -2.54080
Na         0.12023        2.11272       -0.77898
Mg         3.52495        2.21351        0.03259
C         -4.86105       -2.01996       -2.16213
C         -4.90438       -0.19232       -0.64558
O         -4.07925       -1.11109       -1.35872
C         -5.85499       -1.37527       -3.14135
C         -5.78091       -0.86415        0.43387
H         -4.21035       -2.64473       -2.78535
H         -5.37078       -2.77387       -1.52544
H         -4.25552        0.53683       -0.12225
H         -5.52891        0.41039       -1.33426
H         -5.15051       -1.29041        1.24181
H         -6.46730       -0.11194        0.87803
H         -6.42904       -1.66786        0.02738
H         -5.33280       -0.64372       -3.78914
H         -6.30318       -2.16331       -3.78387
H         -6.69992       -0.88757       -2.61269
H          2.16185        4.26304        0.45621
C          2.41619        3.81676        2.55193
C          2.24434        3.36258        1.09325
C          1.10227        4.48157        2.99616
H          2.64198        2.96280        3.23027
H          3.26393        4.53612        2.60623
H          0.80021        5.24657        2.24922
H          0.31287        3.69820        3.04118
C          1.19347        5.17595        4.34935
H          1.34769        2.72262        1.01106
H          1.49955        4.46849        5.14637
H          1.91550        6.01838        4.29603
H          0.19357        5.59208        4.60402
C          6.40103        3.34403       -0.22823
C          7.54637        2.76435        0.29975
C          7.14152        1.60868        0.95393
C          5.76816        1.54315        0.77884
N          5.32721        2.58567        0.08265
C          4.73754        0.46584        1.12630
N          3.79326        0.27437       -0.03637
C          4.44680       -0.30477       -1.26700
H          8.55667        3.13443        0.18645
H          6.35846        4.23755       -0.83554
H          7.78314        0.90120        1.45978
H          5.19877       -0.46750        1.50810
H          4.14672        0.89115        1.96124
C          5.12097       -1.66885       -0.97748
C          3.35172       -0.51120       -2.28681
C          5.47263        0.61354       -1.97865
H          4.38922       -2.40541       -0.58546
H          5.57182       -2.08295       -1.90649
H          5.95300       -1.56857       -0.24991
H          2.86246        0.45790       -2.49649
H          3.74075       -0.94091       -3.23677
H          2.61581       -1.19477       -1.86868
H          5.01999        1.60350       -2.20412
H          6.42166        0.71806       -1.42995
H          5.78512        0.17446       -2.94985
