83
speciation720.ct
Na         1.34922        1.85964        0.14125
Mg         3.18396        0.15123       -2.14140
C          5.93338       -0.17779       -2.77402
C          4.87218       -1.11423       -4.61893
O          4.67914       -0.59385       -3.29235
C          6.47853        1.08746       -3.45596
C          3.61848       -1.63591       -5.28824
H          5.78986        0.03933       -1.70169
H          6.68820       -0.99914       -2.80728
H          5.25928       -0.34246       -5.31664
H          5.57456       -1.97846       -4.58309
H          2.96987       -0.78377       -5.55393
H          3.89453       -2.11702       -6.25310
H          3.11209       -2.38710       -4.64983
H          5.71004        1.88337       -3.45267
H          7.37783        1.44936       -2.91880
H          6.79459        0.89519       -4.50290
C         -1.63072        0.61697        0.21675
C         -2.17810       -0.64364        0.14008
C         -1.11477       -1.51442       -0.02106
C          0.02724       -0.74363       -0.03420
N         -0.28549        0.54879        0.11075
C          1.43558       -1.23534       -0.19707
N          2.42160       -0.12407       -0.16500
C          3.30727       -0.17603        1.04617
H         -3.22793       -0.89415        0.20562
H         -2.19520        1.53297        0.35404
H         -1.18590       -2.59367       -0.11811
H          1.52344       -1.76543       -1.16781
H          1.58649       -1.98683        0.59745
C          4.21024       -1.42562        1.09135
C          4.21741        1.05925        1.02013
C          2.48278       -0.14331        2.36953
H          4.82857       -1.50557        0.17748
H          4.88511       -1.37393        1.97781
H          3.62439       -2.35979        1.21512
H          3.60294        1.96363        1.10338
H          4.92781        1.05956        1.87801
H          4.80516        1.09182        0.08200
H          1.70453        0.62568        2.33968
H          1.93674       -1.08539        2.56690
H          3.14040        0.03604        3.25252
Na         3.62537        3.83278        0.15502
C          0.67228        0.83243       -3.20416
C          2.51567        2.12800       -3.98945
O          1.94830        1.39425       -2.91523
C          0.60962       -0.09174       -4.41536
C          1.71357        3.38181       -4.35865
H          0.39315        0.20586       -2.35056
H         -0.10782        1.61841       -3.25247
H          3.50851        2.48763       -3.65670
H          2.69090        1.49242       -4.87773
H          1.64975        4.06330       -3.49418
H          2.22577        3.92477       -5.17897
H          0.69044        3.13214       -4.70546
H          1.31217       -0.92159       -4.24871
H         -0.40040       -0.53964       -4.50072
H          0.81449        0.45056       -5.36217
C          4.51154        6.18589       -1.74310
C          3.74327        7.12836       -2.39651
C          2.41900        6.82937       -2.12097
C          2.43666        5.71433       -1.30368
N          3.70701        5.36039       -1.05874
C          1.22207        4.97627       -0.74391
N          1.57680        4.09256        0.40178
C          0.79878        4.34390        1.65141
H          4.11227        7.94392       -3.00446
H          5.59065        6.11308       -1.75177
H          1.55055        7.37209       -2.46481
H          0.74278        4.37277       -1.53477
H          0.45735        5.72694       -0.49426
C         -0.59847        3.74685        1.44436
C          1.51216        3.62847        2.80029
C          0.65060        5.82447        2.08763
H         -0.49043        2.66812        1.30282
H         -1.25973        3.90418        2.32026
H         -1.09196        4.17887        0.54578
H          2.44919        4.15374        3.07884
H          0.85996        3.54240        3.69704
H          1.80624        2.63425        2.47886
H          1.64069        6.29376        2.25538
H          0.05820        6.45289        1.39799
H          0.08885        5.85813        3.05021
