66
speciation165.ct
Na         3.76572        4.56664        2.85558
Mg         2.15949        4.58019       -1.26193
H          1.93124        6.98951       -0.34625
C          0.00057        6.71009       -1.27429
C          1.51182        6.51464       -1.25901
C         -0.63386        6.12809       -0.00832
H         -0.21342        7.80101       -1.31763
H         -0.42352        6.22263       -2.17788
H         -0.42890        5.04323        0.04739
H         -0.19529        6.61562        0.89218
C         -2.14404        6.34589        0.01086
H          1.97309        6.99885       -2.14542
H         -2.37569        7.43200       -0.01089
H         -2.61419        5.85197       -0.86573
H         -2.57114        5.90973        0.93818
C          6.12189        4.82805        0.87561
C          6.66449        4.38211       -0.31074
C          5.78313        3.45327       -0.82025
C          4.73690        3.37020        0.08043
N          4.94790        4.21446        1.11400
C          3.55762        2.44865       -0.02632
N          2.79129        2.69315       -1.26478
C          1.62333        1.80346       -1.47349
H          7.60342        4.69557       -0.74487
H          6.56712        5.55688        1.54104
H          5.90151        2.89081       -1.73797
H          3.95365        1.41376       -0.01157
H          2.92207        2.61657        0.86498
C          0.59883        1.91251       -0.32423
C          0.94351        2.24675       -2.77946
C          2.05675        0.32971       -1.62953
H          0.27572        2.96054       -0.19605
H         -0.29769        1.29217       -0.54050
H          1.01519        1.54759        0.63662
H          1.64606        2.15478       -3.63482
H          0.04958        1.61905       -2.99317
H          0.61666        3.30630       -2.70700
H          2.80782        0.22749       -2.44328
H          2.49203       -0.07441       -0.69259
H          1.18271       -0.31014       -1.87770
Mg         3.89124        2.36435       -2.89023
C          5.31441        0.83704       -5.03569
C          6.14893        0.99966       -6.12355
C          6.34922        2.35620       -6.26764
C          5.62490        2.96057       -5.25959
N          4.99120        2.03555       -4.51568
C          5.54743        4.42803       -4.99552
N          4.98465        5.09808       -6.17491
C          4.75798        6.55494       -6.05062
H          6.57419        0.21480       -6.73466
H          4.97045       -0.10798       -4.63720
H          6.96114        2.84517       -7.01424
H          4.89934        4.57233       -4.10826
H          6.57076        4.79622       -4.77944
C          6.08480        7.31442       -5.83555
C          4.13587        7.02979       -7.37428
C          3.76856        6.87551       -4.90952
H          6.79489        7.09556       -6.66189
H          5.90378        8.41101       -5.81090
H          6.56320        7.03825       -4.87434
H          3.18597        6.48946       -7.57452
H          3.91892        8.12039       -7.34213
H          4.82876        6.83844       -8.22306
H          2.81983        6.31561       -5.05410
H          4.18707        6.62009       -3.91505
H          3.53801        7.96238       -4.88903
