53
speciation889.ct
Na         0.80274        1.46966       -0.54051
C         -1.94417        0.75024        0.76916
C         -2.43600       -0.50723        1.06548
C         -1.39976       -1.40802        0.84941
C         -0.30980       -0.66520        0.44661
N         -0.67014        0.62932        0.36355
C          1.06828       -1.17992        0.02243
N          2.09002       -0.10036       -0.07413
C          2.99014        0.05243        1.09866
H         -3.45246       -0.74381        1.34509
H         -2.50542        1.67462        0.74470
H         -1.44913       -2.48572        0.93931
H          0.93742       -1.63432       -0.98034
H          1.37126       -1.99350        0.69621
C          3.89476       -1.19615        1.26061
C          3.91844        1.25910        0.85447
C          2.19716        0.30505        2.39718
H          4.47766       -1.37556        0.33170
H          4.61545       -1.05544        2.09468
H          3.32785       -2.11725        1.49087
H          3.33664        2.19878        0.74613
H          4.62699        1.38764        1.70450
H          4.52358        1.11260       -0.06668
H          1.58601        1.22731        2.30654
H          1.52822       -0.54710        2.63500
H          2.89248        0.43089        3.25659
Na         3.42653       -0.53155       -1.68495
Mg         3.44539        3.25606       -1.87643
C         -1.39855       -0.06347       -2.46075
C         -1.37493       -0.38951       -3.79505
C         -0.22253        0.16563       -4.31874
C          0.38661        0.82623       -3.27814
N         -0.29476        0.64693       -2.15512
C          1.61848        1.67855       -3.27555
N          1.61864        2.61612       -2.11940
C          0.76479        3.83465       -2.18899
H         -2.12586       -0.97386       -4.31216
H         -2.16408       -0.35097       -1.75624
H          0.11308        0.09198       -5.34392
H          1.74249        2.20114       -4.24023
H          2.48452        0.98707       -3.18350
C         -0.74820        3.51986       -2.20580
C          1.04834        4.64195       -0.90824
C          1.11082        4.70949       -3.40709
H         -1.04556        2.93525       -1.30912
H         -1.34138        4.46016       -2.18657
H         -1.04728        2.97883       -3.12406
H          2.12242        4.92484       -0.85513
H          0.43760        5.56749       -0.87189
H          0.81296        4.03572       -0.00704
H          2.18444        4.98494       -3.39702
H          0.87239        4.19217       -4.35761
H          0.50332        5.64032       -3.38918
