96
speciation1756.ct
Na         1.50354       -0.93960        0.27763
Mg         3.53366        3.62616       -0.79868
C          6.24604        5.20997       -0.79124
C          4.58114        6.46618        0.26406
O          4.82064        5.42357       -0.72413
C          6.92268        6.08501       -1.86829
C          4.45560        7.90461       -0.22685
H          6.77190        5.37086        0.17417
H          6.49726        4.15180       -0.95691
H          3.66170        6.28075        0.79826
H          5.33138        6.47494        1.09223
H          3.56808        8.01936       -0.87518
H          5.35547        8.29996       -0.71708
H          4.32980        8.54854        0.67408
H          6.57769        7.12577       -1.85479
H          6.73749        5.71126       -2.89295
H          8.01806        6.13183       -1.68612
H          4.81077        0.27979        4.07115
C          6.20060        1.86760        4.00395
C          5.42861        0.76860        3.28521
C          7.05381        1.31567        5.14921
H          6.85108        2.38725        3.26939
H          5.47560        2.57978        4.44722
H          6.40452        0.78351        5.87926
H          7.80951        0.60062        4.75637
C          7.76156        2.46127        5.86435
H          6.16941        0.01807        2.94609
H          8.44209        2.98548        5.16021
H          7.01369        3.18667        6.25266
H          8.35255        2.06877        6.71672
C          5.51945        2.62327       -2.67243
C          6.12598        1.57891       -3.33560
C          5.57193        0.42107       -2.85389
C          4.60745        0.80925       -1.92531
N          4.61857        2.16548       -1.77774
C          3.62319       -0.18604       -1.36418
N          3.57614       -0.40077        0.10067
C          4.18135       -1.64153        0.62986
H          6.87537        1.66397       -4.11484
H          5.69103        3.65704       -2.89589
H          5.77431       -0.57434       -3.19973
H          3.76469       -1.14539       -1.88263
H          2.62477        0.14933       -1.69684
C          5.70975       -1.56730        0.46885
C          3.76287       -1.75488        2.11009
C          3.64703       -2.95104       -0.01277
H          6.11170       -0.63173        0.89633
H          6.20926       -2.43836        0.94135
H          5.97218       -1.56417       -0.60988
H          2.68771       -2.02189        2.20755
H          4.36563       -2.49651        2.67144
H          3.79780       -0.78597        2.58343
H          2.54307       -3.02030        0.10280
H          3.89247       -3.06953       -1.08090
H          4.08495       -3.83211        0.50666
Mg         4.04378        1.11277        1.44157
C          2.20478        3.58855       -3.37865
C          0.80630        4.73582       -1.85205
O          1.92245        3.85659       -2.00286
C          2.54293        4.81664       -4.22761
C         -0.53601        4.12435       -2.30196
H          3.06735        2.91766       -3.43090
H          1.40979        2.97293       -3.84711
H          0.65117        4.98638       -0.79564
H          0.98803        5.70809       -2.34933
H         -0.82526        3.27982       -1.64100
H         -1.32829        4.90097       -2.24544
H         -0.52509        3.76978       -3.35123
H          3.36252        5.39338       -3.75216
H          2.86533        4.48476       -5.23668
H          1.65522        5.46406       -4.37790
C          0.35932        0.16100        3.55767
C         -0.71498        0.98928        3.31454
C         -0.41294        1.74032        2.19322
C          0.80817        1.39588        1.77780
N          1.35109        0.37323        2.58499
C          1.53885        2.05948        0.64289
N          2.83664        2.66075        1.03573
C          2.79723        3.67119        2.12636
H         -1.61224        1.05582        3.91498
H          0.44393       -0.53426        4.38184
H         -1.03335        2.51163        1.75578
H          0.88821        2.82080        0.18005
H          1.70853        1.31797       -0.14218
C          2.45928        3.17591        3.56599
C          4.23463        4.13912        2.22172
C          1.79695        4.78306        1.77216
H          3.23078        2.49900        3.97927
H          2.40378        4.05651        4.24465
H          1.48746        2.69921        3.70494
H          4.65036        4.28717        1.23539
H          4.38382        4.99865        2.91005
H          4.85662        3.30686        2.52466
H          1.99046        5.15761        0.76380
H          0.75426        4.40434        1.78116
H          1.84513        5.62408        2.49611
