68
speciation61.ct
Na         1.00955       -0.08381        0.05371
Mg         4.04201       -1.81236       -0.64549
C         -1.80317        1.22594       -0.16874
C         -1.90860       -0.71042        1.17159
O         -1.31045       -0.08381        0.05371
C         -1.50275        2.21737        0.96252
C         -1.30359       -2.09404        1.36220
H         -1.29815        1.60315       -1.08317
H         -2.88971        1.20550       -0.40496
H         -1.73335       -0.15165        2.11359
H         -2.99923       -0.83922        0.99113
H         -0.22228       -2.00604        1.59748
H         -1.80880       -2.60787        2.20800
H         -1.42930       -2.70350        0.44302
H         -0.41851        2.21555        1.20022
H         -1.80030        3.23827        0.64338
H         -2.08683        1.98231        1.87550
C          5.94902       -0.98785       -2.93661
C          6.22670        0.24118       -3.50782
C          5.46631        1.17367       -2.82977
C          4.77014        0.46894       -1.87030
N          5.05312       -0.83104       -1.94320
C          3.81695        1.00499       -0.85644
N          3.37955       -0.08381        0.05371
C          3.77326        0.07398        1.47334
H          6.90603        0.43157       -4.32722
H          6.37319       -1.93398       -3.23760
H          5.43441        2.24013       -3.00910
H          2.93530        1.42575       -1.38269
H          4.32541        1.83128       -0.32723
C          3.19056        1.36908        2.09247
C          3.18078       -1.10977        2.24780
C          5.30903        0.04641        1.62176
H          2.08437        1.38519        1.98963
H          3.44087        1.42515        3.17423
H          3.59173        2.29101        1.62917
H          3.56746       -2.05888        1.84120
H          3.44757       -1.05682        3.32554
H          2.07321       -1.11646        2.16169
H          5.72337       -0.87659        1.16248
H          5.78392        0.92092        1.13198
H          5.59791        0.06825        2.69485
Na         4.14723       -4.21607        1.80683
C          1.13981       -6.83211        1.29033
C          0.59061       -7.00300        0.03814
C          0.90812       -5.88413       -0.71011
C          1.63323       -5.06837        0.05513
N          1.81090       -5.60086        1.34946
C          2.20620       -3.75684       -0.38714
N          3.66921       -3.69340       -0.21729
C          4.53259       -4.50753       -1.10903
H          0.02566       -7.86366       -0.29269
H          1.07539       -7.53658        2.10845
H          0.63761       -5.70527       -1.74249
H          1.75827       -2.97435        0.26008
H          1.91199       -3.50361       -1.42562
C          4.21721       -4.25494       -2.59840
C          5.98548       -4.08795       -0.81969
C          4.42342       -6.01706       -0.81186
H          4.28349       -3.17820       -2.84078
H          4.92903       -4.80833       -3.24760
H          3.19744       -4.60456       -2.86146
H          6.24048       -4.28047        0.24506
H          6.69966       -4.65117       -1.45958
H          6.13078       -3.00729       -1.00466
H          4.61332       -6.22008        0.26338
H          3.43900       -6.42786       -1.09158
H          5.16635       -6.58346       -1.41308
