110
speciation1976.ct
Na         1.64234       -0.35624        0.21658
Mg        -1.25952        1.81904        3.72105
C          3.87370        1.66895        0.79663
C          3.13456        0.74176        2.86829
O          2.89676        0.88041        1.46909
C          5.32927        1.37540        1.18242
C          3.08416        2.07658        3.59686
H          3.79952        1.42958       -0.27559
H          3.64183        2.75457        0.90168
H          2.32673        0.15136        3.32450
H          4.06839        0.20038        3.07044
H          2.06523        2.43212        3.47556
H          3.29632        1.92656        4.67764
H          3.77027        2.85069        3.20840
H          5.52701        0.28907        1.07913
H          6.01471        1.94229        0.52060
H          5.54746        1.69326        2.22396
H         -3.85872        1.63276        3.72343
C         -3.73739        1.24265        5.82763
C         -3.16080        1.11485        4.41463
C         -3.85488        2.70144        6.27674
H         -4.75410        0.78517        5.82510
H         -3.10140        0.67649        6.53994
H         -2.84371        3.15798        6.30543
H         -4.48815        3.27025        5.56000
C         -4.49194        2.79707        7.66465
H         -3.15442        0.03860        4.14728
H         -5.52517        2.38588        7.64874
H         -3.89086        2.23193        8.40827
H         -4.54261        3.85971        7.98258
C         -0.99087       -3.87062       -2.75000
C         -0.34550       -5.10014       -2.78185
C          0.41690       -5.16449       -1.63704
C          0.20621       -3.97209       -0.96834
N         -0.67722       -3.20166       -1.62358
C          0.84961       -3.54511        0.30736
N          0.36113       -2.21772        0.75715
C          0.08672       -2.20633        2.22556
H         -0.41022       -5.86283       -3.54944
H         -1.65207       -3.50324       -3.52175
H          1.04556       -5.99009       -1.31417
H          1.94950       -3.53307        0.19291
H          0.60651       -4.36971        1.00304
C          1.38728       -2.51402        2.99537
C         -0.40443       -0.82162        2.62075
C         -1.03440       -3.19661        2.66365
H          2.20094       -1.86147        2.63035
H          1.25003       -2.37015        4.08804
H          1.72816       -3.55521        2.82990
H         -1.32854       -0.62998        2.05689
H         -0.63731       -0.76416        3.70566
H          0.34453       -0.04597        2.39983
H         -1.98389       -2.98597        2.12808
H         -0.79065       -4.26608        2.52747
H         -1.22482       -3.08708        3.75555
Na        -0.13198        0.69489        0.46707
Mg        -1.01325       -1.52015       -0.59643
C          1.07698       -0.48844       -2.65196
C          1.99247        1.65402       -2.22202
O          1.23319        0.55834       -1.71543
C          2.38889       -1.09875       -3.14706
C          1.32259        2.38058       -3.40441
H          0.54697       -1.27225       -2.11258
H          0.39760       -0.20831       -3.48504
H          2.08027        2.41220       -1.41736
H          3.02295        1.34952       -2.49221
H          0.34011        2.80434       -3.10853
H          1.97540        3.21480       -3.73935
H          1.17771        1.71487       -4.27911
H          3.03321       -1.35317       -2.27970
H          2.17109       -2.02143       -3.72359
H          2.92345       -0.40157       -3.82467
H         -0.38179        1.47460        6.40749
C          1.01540        3.06734        6.02682
C          0.17807        1.86161        5.53147
C          0.18662        4.26137        6.47627
H          1.71291        2.76420        6.84271
H          1.62306        3.44668        5.19938
H         -0.50572        4.49083        5.64218
H         -0.40928        4.03720        7.39133
C          1.09636        5.48240        6.70735
H          0.90750        1.06381        5.26508
H          1.51987        5.48618        7.73405
H          1.94894        5.50425        5.99175
H          0.52029        6.41502        6.53416
C         -2.56886        0.26768       -2.29963
C         -3.39036        1.37385       -2.45536
C         -3.54574        1.92920       -1.21035
C         -2.78781        1.17464       -0.33344
N         -2.19032        0.12972       -1.00416
C         -2.71292        1.50777        1.14036
N         -1.37264        1.95262        1.60255
C         -0.90291        3.29082        1.16563
H         -3.83758        1.73502       -3.36818
H         -2.24278       -0.37733       -3.09445
H         -4.13922        2.79686       -0.96268
H         -3.46492        2.27188        1.40359
H         -3.02597        0.59528        1.67742
C         -1.83598        4.41347        1.67121
C          0.45517        3.50508        1.78735
C         -0.73428        3.41741       -0.38009
H         -2.82285        4.36917        1.17133
H         -1.39778        5.41067        1.45044
H         -1.98180        4.31699        2.76928
H          1.15063        2.71737        1.42948
H          0.89224        4.49286        1.51617
H          0.34290        3.47294        2.88769
H         -0.25154        2.50722       -0.78667
H         -1.69019        3.57105       -0.89467
H         -0.09506        4.27871       -0.64834
