81
speciation420.ct
Na         0.95568        1.80690       -0.06293
Mg         2.42651       -3.07296        1.24105
C          0.03701        1.92391       -3.66669
C          0.06728        3.94925       -2.60167
O          0.03107        2.54257       -2.33211
C         -1.24017        2.06335       -4.52915
C          0.23221        4.76571       -1.37016
H          0.80404        2.38586       -4.33619
H          0.32828        0.86006       -3.65376
H          0.88388        4.25058       -3.30138
H         -0.89108        4.29351       -3.02380
H          1.23777        4.61723       -1.02948
H          0.16296        5.84067       -1.62825
H         -0.52709        4.47553       -0.61959
H         -1.78877        3.00985       -4.38749
H         -0.94292        2.07397       -5.60944
H         -1.92659        1.21109       -4.38634
H          2.56516       -5.01678        2.77511
C          4.23921       -3.72993        3.31876
C          3.38183       -4.44781        2.29082
C          4.88142       -4.76064        4.24373
H          5.01957       -3.13461        2.79507
H          3.59367       -3.03425        3.89689
H          4.08235       -5.35578        4.73759
H          5.51990       -5.44396        3.64259
C          5.73411       -4.09822        5.31406
H          4.00658       -5.12708        1.66962
H          6.55058       -3.50884        4.84601
H          5.10817       -3.43119        5.94414
H          6.18029       -4.88592        5.95624
C          4.10729        1.23143        2.33128
C          5.21881        2.10132        2.38698
C          4.91481        3.16813        1.60072
C          3.69282        2.85333        1.11504
N          3.14650        1.70380        1.46559
C          2.94731        3.44970        0.12908
N          2.82934        2.28778       -0.75726
C          3.86264        2.16744       -1.84434
H          6.17921        1.98772        2.88270
H          4.09171        0.27459        2.82790
H          5.51215        4.03628        1.32736
H          3.35879        4.37652       -0.30837
H          1.97280        3.65965        0.65286
C          5.30033        2.80303       -1.73671
C          4.17715        0.73214       -1.98249
C          3.18898        2.64553       -3.07589
H          6.10237        2.02119       -1.71555
H          5.60319        3.24728       -2.70816
H          5.57440        3.36548       -0.84404
H          3.26175        0.24036       -2.05794
H          4.74898        0.46484       -2.88496
H          4.73843        0.45213       -1.06824
H          2.31402        2.01950       -3.08787
H          2.95408        3.72031       -2.95696
H          3.75871        2.44357       -3.99717
Mg         2.22245        0.32049        0.03986
C         -1.85990        0.80009        0.38292
C         -2.87256       -0.13705        0.45563
C         -2.26498       -1.35897        0.45125
C         -0.90991       -1.11285        0.38818
N         -0.64346        0.21522        0.30773
C          0.06352       -2.20972        0.31700
N          1.44619       -1.72424        0.30474
C          2.07123       -1.87429       -0.99421
H         -3.93848        0.04531        0.47942
H         -2.01350        1.86699        0.34844
H         -2.75135       -2.33003        0.45919
H         -0.06171       -2.91432        1.16296
H         -0.22185       -2.79598       -0.58361
C          1.28404       -0.88209       -1.93417
C          3.56764       -1.69942       -0.61115
C          2.07257       -3.24903       -1.70317
H          1.20546        0.14684       -1.53354
H          1.69248       -0.83787       -2.95853
H          0.21728       -1.16129       -2.05984
H          3.93828       -2.54640        0.00376
H          4.24518       -1.69688       -1.48472
H          3.72470       -0.86780        0.10871
H          2.70994       -3.99552       -1.18717
H          1.08884       -3.69706       -1.89943
H          2.53447       -3.07828       -2.70560
