81
speciation804.ct
Na         0.32012        0.53243       -0.58258
Mg         3.37586        0.15372       -1.83400
C          1.39482        1.19372       -3.54066
C          3.45649        2.28887       -4.03402
O          2.67312        1.58628       -3.05583
C          1.40016        0.30306       -4.79314
C          2.96219        3.69627       -4.36146
H          0.92290        0.59729       -2.73972
H          0.73442        2.07595       -3.67811
H          4.49227        2.39761       -3.65708
H          3.53336        1.74707       -4.99552
H          3.04894        4.36132       -3.48016
H          3.59527        4.10673       -5.18105
H          1.91901        3.68470       -4.73464
H          2.03736       -0.59047       -4.63295
H          0.36467       -0.03572       -5.00334
H          1.73504        0.85242       -5.69638
H          6.87733        0.03863        0.96122
C          8.06671       -1.61675        1.61896
C          6.73831       -1.04319        1.15544
C          8.58703       -0.81257        2.81993
H          7.91930       -2.68314        1.89087
H          8.79874       -1.55150        0.78548
H          8.74844        0.24412        2.51004
H          7.83839       -0.82769        3.64261
C          9.90189       -1.37770        3.33923
H          5.99159       -1.16868        1.96258
H          9.74957       -2.41420        3.70524
H         10.66527       -1.37539        2.53415
H         10.26373       -0.74887        4.17976
C         -1.38131       -2.02601        0.22974
C         -0.97216       -3.24536        0.73210
C          0.40403       -3.18573        0.85993
C          0.77516       -1.92351        0.43475
N         -0.30944       -1.24005        0.04224
C          2.19497       -1.37360        0.39762
N          2.28391        0.03328       -0.11392
C          2.60242        1.06862        0.90364
H         -1.60725       -4.08911        0.97954
H         -2.39882       -1.73375        0.00565
H          1.05383       -3.96652        1.22390
H          2.80631       -2.02296       -0.25255
H          2.61133       -1.47683        1.41562
C          3.99168        0.85737        1.53047
C          2.61022        2.42792        0.18761
C          1.53893        1.10444        2.02528
H          4.76042        0.83589        0.73604
H          4.23509        1.68490        2.23442
H          4.04301       -0.07203        2.12853
H          1.62232        2.62958       -0.27406
H          2.84431        3.24810        0.90060
H          3.38095        2.43173       -0.61122
H          0.52705        1.29329        1.61225
H          1.50684        0.15188        2.59652
H          1.76649        1.91452        2.75297
Mg         5.94759       -1.92796       -0.55582
C          6.40756       -4.94314       -0.99606
C          5.80896       -5.81877       -1.88542
C          4.90724       -5.07999       -2.62849
C          5.01119       -3.78477       -2.16727
N          5.89991       -3.71230       -1.17145
C          4.26339       -2.57662       -2.65804
N          4.81423       -1.32501       -2.05947
C          5.84105       -0.62809       -2.86854
H          6.00956       -6.87877       -1.97936
H          7.16280       -5.19379       -0.26337
H          4.26408       -5.44105       -3.41998
H          3.20042       -2.69843       -2.36983
H          4.26992       -2.56245       -3.76154
C          5.30382       -0.28587       -4.26386
C          6.17380        0.66475       -2.10488
C          7.14000       -1.44165       -3.04114
H          4.25444       -0.02104       -4.14627
H          5.89891        0.51624       -4.75047
H          5.30863       -1.15073       -4.95452
H          6.67311        0.41620       -1.15499
H          6.86286        1.31861       -2.67746
H          5.25574        1.23345       -1.85477
H          7.57297       -1.71633       -2.05723
H          6.95087       -2.36958       -3.62046
H          7.89295       -0.84261       -3.59732
