110
speciation1981.ct
Na         1.07092        4.66699        0.30976
Mg        -3.68885       -0.30524       -0.33761
C          3.86789        5.61954        0.78930
C          3.37561        5.61937       -1.55229
O          3.10491        5.03219       -0.26050
C          3.84323        7.15249        0.86077
C          4.76562        5.21697       -2.07932
H          3.42600        5.23869        1.73617
H          4.91175        5.24075        0.78210
H          2.63409        5.20373       -2.26487
H          3.23622        6.70395       -1.56490
H          4.84482        4.11662       -2.18575
H          4.92705        5.68591       -3.07375
H          5.57229        5.57746       -1.40759
H          2.79908        7.52213        0.80306
H          4.29751        7.49294        1.81397
H          4.44601        7.60113        0.04024
H         -1.57827       -2.10707       -1.30651
C         -0.36450       -0.67585       -2.39325
C         -1.78308       -1.15380       -1.82749
C          0.69720       -0.27786       -1.31950
H          0.09254       -1.45795       -3.04353
H         -0.51192        0.15202       -3.09976
H          0.21610        0.34704       -0.54918
H          1.04613       -1.21017       -0.82025
C          1.91626        0.55241       -1.86135
H         -2.35173       -1.42492       -2.74952
H          2.68453       -0.01891       -2.44390
H          2.19362        1.44755       -1.25339
H          1.61567        1.33374       -2.53450
C         -0.04980        3.34842       -2.24126
C         -0.98460        2.50707       -2.85113
C         -1.77971        2.00842       -1.85064
C         -1.27097        2.52026       -0.66645
N         -0.27088        3.34201       -0.92376
C         -1.86166        2.23790        0.66512
N         -2.39828        0.85300        0.87248
C         -3.02044        0.70022        2.21514
H         -1.05657        2.32571       -3.91638
H          0.71615        3.90341       -2.74795
H         -2.61185        1.31477       -1.98288
H         -1.05350        2.45926        1.40364
H         -2.64394        3.01447        0.77575
C         -4.17931        1.71993        2.39358
C         -3.51514       -0.74678        2.32378
C         -2.02786        0.86972        3.38261
H         -4.84705        1.72319        1.50422
H         -4.75638        1.51706        3.32281
H         -3.81593        2.76079        2.51433
H         -2.67968       -1.47131        2.29627
H         -4.12572       -0.91073        3.23881
H         -4.09112       -1.02835        1.46692
H         -1.19530        0.14346        3.27698
H         -1.61987        1.89474        3.45219
H         -2.55094        0.65910        4.34379
Na        -8.00523       -2.53693       -4.30828
Mg        -9.22299       -0.80767       -2.11117
C         -1.13429        6.43964        1.24919
C          0.54385        6.17058        2.92677
O         -0.10697        5.61144        1.79288
C         -0.74706        7.90220        0.96675
C         -0.35538        6.17705        4.17258
H         -1.43620        5.98813        0.28200
H         -2.04507        6.39677        1.88385
H          1.43230        5.55268        3.16855
H          0.94835        7.17926        2.71891
H         -0.55448        5.13864        4.51185
H          0.14902        6.73072        4.99259
H         -1.32425        6.68338        3.98570
H          0.14777        7.94506        0.31233
H         -1.59071        8.41739        0.46149
H         -0.55918        8.46918        1.90311
H        -11.64379       -1.32706       -1.48739
C        -11.73057        0.46331       -2.71546
C        -11.09065       -0.37378       -1.61747
C        -11.75889       -0.30412       -4.04422
H        -12.76768        0.71055       -2.40561
H        -11.15270        1.40443       -2.84118
H        -10.72241       -0.54070       -4.37042
H        -12.31273       -1.26020       -3.91680
C        -12.44895        0.51613       -5.13118
H        -11.05782        0.17788       -0.65581
H        -13.49826        0.73388       -4.83728
H        -11.91001        1.47343       -5.29431
H        -12.46025       -0.05404       -6.08412
C         -6.54990       -0.40973        1.38527
C         -7.85818       -0.85721        1.46524
C         -8.09249       -1.55068        0.33315
C         -6.90758       -1.51034       -0.38990
N         -5.92020       -0.83070        0.23166
C         -6.83243       -2.11605       -1.72730
N         -7.46512       -1.23334       -2.70553
C         -6.83449        0.06157       -3.07602
H         -8.56730       -0.66818        2.27024
H         -6.13564        0.16374        2.16956
H         -9.02996       -2.03002        0.05796
H         -5.82048       -2.46916       -2.00745
H         -7.46960       -3.03525       -1.69078
C         -5.37803       -0.14738       -3.54503
C         -7.73829        0.65262       -4.16798
C         -6.82996        1.12389       -1.94248
H         -5.31685       -0.84218       -4.40626
H         -4.89641        0.81700       -3.81189
H         -4.77605       -0.57647       -2.71273
H         -8.76177        0.78134       -3.74541
H         -7.39138        1.65331       -4.50139
H         -7.81695       -0.02415       -5.04108
H         -7.83310        1.23578       -1.47756
H         -6.07011        0.95248       -1.17223
H         -6.53176        2.11281       -2.35449
