95
speciation1816.ct
Na         1.31548        1.63310       -0.27089
Mg        -1.49824        5.22678       -3.84620
C         -4.10732        6.05277       -3.85398
C         -3.69059        3.92060       -4.84596
O         -3.25463        5.25947       -4.66937
C         -4.44466        5.46403       -2.47772
C         -4.94526        3.82111       -5.71729
H         -3.57226        7.00937       -3.67660
H         -5.03151        6.32741       -4.40514
H         -2.88343        3.37529       -5.37887
H         -3.82344        3.38789       -3.88309
H         -4.75424        4.26730       -6.71600
H         -5.21869        2.75280       -5.84929
H         -5.80681        4.33516       -5.24450
H         -3.51411        5.19939       -1.93343
H         -5.00730        6.21685       -1.88658
H         -5.09932        4.57259       -2.56716
H          5.90600        0.19251       -2.37744
C          6.47651       -0.12788       -0.30986
C          5.46148        0.34054       -1.37354
C          6.88250       -1.59220       -0.51604
H          7.39013        0.50327       -0.37266
H          6.06129        0.00315        0.70963
H          5.99519       -2.25245       -0.49520
H          7.36418       -1.70277       -1.50971
C          7.85634       -2.05606        0.56723
H          5.30697        1.43586       -1.25134
H          8.78948       -1.45453        0.53553
H          7.39630       -1.96000        1.57489
H          8.11494       -3.12297        0.40014
C         -1.60663        0.47163       -1.20503
C         -2.21530       -0.77418       -1.20760
C         -1.28320       -1.66879       -0.72138
C         -0.15534       -0.92474       -0.45145
N         -0.34895        0.37247       -0.72888
C          1.12077       -1.44343        0.10116
N          2.07827       -0.32811        0.25647
C          2.82091       -0.32810        1.54092
H         -3.22510       -1.00800       -1.52040
H         -2.06941        1.39783       -1.51860
H         -1.41322       -2.73340       -0.57012
H          1.55118       -2.20609       -0.57922
H          0.86890       -1.95003        1.04911
C          3.73490       -1.56008        1.58043
C          3.61819        0.97622        1.58534
C          1.93215       -0.31261        2.81549
H          4.29643       -1.62026        0.63749
H          4.43726       -1.52358        2.43767
H          3.13577       -2.49233        1.66142
H          2.90858        1.82170        1.67224
H          4.30985        1.01046        2.45403
H          4.17712        1.13418        0.66053
H          1.26422        0.57368        2.82930
H          1.31545       -1.21933        2.95391
H          2.58608       -0.26232        3.71656
Na         0.78574        7.27576       -2.94119
Mg         3.43010       -0.48654       -1.28815
H          3.58131       -1.92135       -3.55471
C          2.74213       -0.25039       -4.62278
C          2.88134       -1.08850       -3.33669
C          4.07416        0.35355       -5.08564
H          2.35917       -0.91126       -5.43543
H          1.99596        0.54731       -4.45914
H          4.45881        1.03453       -4.29994
H          4.81248       -0.46053       -5.25736
C          3.92075        1.13949       -6.39339
H          1.88429       -1.54094       -3.14252
H          3.58157        0.47558       -7.21832
H          3.19103        1.96620       -6.27536
H          4.89906        1.57982       -6.68264
C          3.23331        4.17807        0.26336
C          3.33492        5.53917        0.06471
C          2.22268        5.91537       -0.65949
C          1.50346        4.75410       -0.88237
N          2.11300        3.69435       -0.30503
C          0.21943        4.64108       -1.63704
N          0.30343        5.19324       -3.00181
C          1.11775        4.55985       -4.04615
H          4.13211        6.18489        0.41901
H          3.95427        3.60043        0.80851
H          1.98980        6.91467       -0.98539
H         -0.14964        3.59667       -1.65346
H         -0.53412        5.24635       -1.08525
C          0.79104        3.06594       -4.15719
C          0.72999        5.24588       -5.37274
C          2.62076        4.80513       -3.81198
H         -0.30463        2.92635       -4.28714
H          1.30375        2.62987       -5.03532
H          1.11290        2.52084       -3.24548
H          0.91839        6.34102       -5.31745
H          1.31230        4.83382       -6.22345
H         -0.34886        5.10003       -5.59622
H          2.81213        5.89631       -3.70120
H          2.99243        4.28701       -2.90980
H          3.21868        4.43516       -4.67106
