110
speciation2473.ct
Na         0.98404        1.66187        0.36287
Mg         0.89717        7.52759        0.04187
C         -0.55359        2.01460        3.19381
C          1.60178        2.98440        3.46396
O          0.70065        2.31057        2.56624
C         -1.31251        3.25700        3.71178
C          1.90398        2.26936        4.82162
H         -1.20678        1.52185        2.45034
H         -0.44175        1.26078        4.00384
H          2.57171        3.13640        2.96650
H          1.22688        4.00396        3.67230
H          2.49673        1.34218        4.68900
H          2.50155        2.95095        5.46573
H          1.00135        2.02914        5.42279
H         -1.47698        3.97169        2.88269
H         -2.29378        2.95732        4.13662
H         -0.76853        3.76682        4.53701
H          2.15311        9.63383        1.05776
C          1.65980        8.37545        2.77093
C          1.31819        8.99516        1.42021
C          2.91316        7.49872        2.69173
H          1.82249        9.18903        3.51144
H          0.79486        7.75908        3.09852
H          2.76086        6.69017        1.94411
H          3.78286        8.11755        2.37916
C          3.22064        6.86652        4.04851
H          0.40894        9.62217        1.52677
H          3.39203        7.65422        4.81352
H          2.37606        6.22290        4.37495
H          4.13467        6.24066        3.97339
C         -1.92809        0.42068       -0.11413
C         -2.31914       -0.87665       -0.35611
C         -1.17419       -1.64157       -0.41758
C         -0.12347       -0.77084       -0.20916
N         -0.58880        0.47184       -0.00498
C          1.34365       -1.14148       -0.19444
N          2.24500        0.03300       -0.00400
C          3.32195       -0.19438        1.00752
H         -3.33744       -1.23547       -0.47826
H         -2.58016        1.27504        0.00116
H         -1.11223       -2.71080       -0.58855
H          1.59695       -1.61556       -1.16287
H          1.45979       -1.91765        0.58365
C          4.23929       -1.37418        0.60223
C          4.19247        1.07352        1.08294
C          2.74217       -0.47851        2.41637
H          4.71746       -1.19033       -0.38023
H          5.04689       -1.51427        1.35452
H          3.68414       -2.33218        0.53936
H          3.59347        1.94342        1.39630
H          5.01996        0.92838        1.81365
H          4.64269        1.29437        0.09289
H          2.00738        0.28977        2.69331
H          2.23941       -1.46190        2.49403
H          3.55258       -0.49078        3.17749
Na         3.59933        0.09296       -1.94799
Mg         1.41541        6.64355       -3.03827
C          5.98691       -0.77444       -3.64566
C          5.37632        1.47600       -4.10291
O          4.92508        0.15166       -3.85097
C          7.02900       -0.37598       -2.58763
C          6.03999        1.63035       -5.47436
H          5.51942       -1.72025       -3.30084
H          6.48115       -1.02205       -4.60910
H          4.50026        2.13826       -4.10698
H          6.02199        1.86843       -3.29281
H          5.32847        1.34986       -6.27941
H          6.33968        2.69041       -5.61832
H          6.95379        1.00777       -5.55679
H          6.53215       -0.13038       -1.62680
H          7.73102       -1.22029       -2.42636
H          7.64397        0.48526       -2.92244
H          2.45904        6.32714       -5.45945
C          3.37083        8.11280       -4.66937
C          2.15962        7.20735       -4.85208
C          3.01501        9.36408       -3.86303
H          4.16263        7.54113       -4.13824
H          3.75190        8.40863       -5.67120
H          2.21699        9.93392       -4.38724
H          2.64283        9.06836       -2.85769
C          4.23542       10.26749       -3.69861
H          1.35140        7.73932       -5.39747
H          5.04724        9.72862       -3.16485
H          4.60945       10.59390       -4.69292
H          3.95944       11.16820       -3.11118
C          1.71562        2.04576       -2.71995
C          2.10773        2.93154       -3.70612
C          2.17497        4.15402       -3.10379
C          1.75985        3.97482       -1.79339
N          1.51638        2.68457       -1.53706
C          1.58936        5.02705       -0.78871
N          0.68945        6.09356       -1.26893
C         -0.71217        5.82846       -1.61295
H          2.34451        2.72181       -4.74336
H          1.59158        0.97694       -2.89558
H          2.47897        5.06173       -3.57579
H          1.26144        4.62022        0.17895
H          2.59697        5.49420       -0.63927
C         -1.39683        5.07328       -0.46732
C         -1.33593        7.21313       -1.84202
C         -0.85237        5.05773       -2.95432
H         -1.22037        5.60445        0.49197
H         -2.48490        4.96547       -0.64423
H         -0.96105        4.05297       -0.38081
H         -0.83624        7.71006       -2.70813
H         -2.41902        7.13639       -2.06951
H         -1.19094        7.86763       -0.95750
H         -0.24209        5.54180       -3.75027
H         -0.55266        3.99685       -2.88004
H         -1.90384        5.06352       -3.30928
