110
speciation2556.ct
Na         6.29537        0.99367        1.11635
Mg        -2.54899       -0.65808        3.45027
C         -4.71273       -2.70159        3.00786
C         -5.33450       -0.76179        4.23463
O         -4.27061       -1.59413        3.79208
C         -5.61408       -2.37873        1.81640
C         -6.27017       -1.46368        5.23171
H         -3.82732       -3.18901        2.59966
H         -5.17677       -3.47717        3.65779
H         -4.89415        0.09699        4.76843
H         -5.89991       -0.32612        3.38419
H         -5.69697       -1.82649        6.11233
H         -7.04431       -0.74663        5.58016
H         -6.79897       -2.31906        4.76580
H         -5.13385       -1.61318        1.17554
H         -5.77101       -3.30601        1.22306
H         -6.61413       -2.03601        2.15249
H         -3.02579        1.20814        5.53777
C         -0.87190        1.12016        5.75026
C         -2.22437        0.45517        5.40775
C         -0.73523        1.57441        7.22436
H         -0.03338        0.43789        5.54728
H         -0.74427        1.99860        5.08628
H          0.23670        2.10805        7.32749
H         -1.54773        2.28226        7.48803
C         -0.70825        0.42359        8.24370
H         -2.46262       -0.31043        6.16717
H         -1.66360       -0.13779        8.26080
H          0.12394       -0.28082        8.02427
H         -0.54505        0.83526        9.26458
C          2.82239       -2.55425        5.17251
C          4.04240       -2.49025        5.78117
C          4.78652       -1.63325        5.03838
C          3.99275       -1.23768        3.97519
N          2.74374       -1.76193        4.07061
C          4.42423       -0.42561        2.82566
N          5.86466       -0.58242        2.49101
C          6.34476       -1.85859        1.87802
H          4.34712       -3.02874        6.66882
H          2.05564       -3.18298        5.56776
H          5.81586       -1.38611        5.23665
H          4.22830        0.65154        3.05959
H          3.78973       -0.69714        1.99795
C          5.63522       -2.18435        0.55125
C          7.83691       -1.66763        1.57469
C          6.19839       -3.08048        2.80687
H          5.78726       -1.36380       -0.18002
H          6.06235       -3.10258        0.09540
H          4.55561       -2.38820        0.70818
H          8.39667       -1.44492        2.50762
H          8.26884       -2.58330        1.11405
H          7.98441       -0.82208        0.86925
H          6.74585       -2.92344        3.75843
H          5.13387       -3.31956        3.00373
H          6.62635       -3.98667        2.32656
Na         7.09032        0.00567        4.14635
Mg         1.10152       -1.33349        2.71437
C          1.72429       -0.43075       -0.18153
C          1.63003        1.35391        1.34892
O          1.49894       -0.04866        1.17814
C          3.12344       -0.08769       -0.72138
C          1.15210        1.76527        2.72447
H          1.58945       -1.52852       -0.24262
H          0.98189        0.03072       -0.86991
H          2.69738        1.65572        1.26940
H          1.01633        1.91469        0.60287
H          1.74373        1.24104        3.50140
H          1.28209        2.86384        2.84826
H          0.08230        1.51520        2.84383
H          3.88732       -0.39008       -0.02069
H          3.31596       -0.61772       -1.67804
H          3.26296        0.99982       -0.88251
H         -1.86117        1.37832        1.69009
C         -3.85800        2.15728        1.88849
C         -2.87217        0.95227        1.83217
C         -3.79051        3.04095        0.61010
H         -4.89877        1.78314        2.00830
H         -3.60637        2.79170        2.76763
H         -2.75360        3.42543        0.47345
H         -4.05592        2.43460       -0.28382
C         -4.73246        4.25496        0.65197
H         -3.14686        0.36660        0.93318
H         -5.79413        3.93835        0.73227
H         -4.48595        4.92282        1.50423
H         -4.62596        4.84926       -0.28447
C         -1.42298       -1.01500       -1.31926
C         -1.52210       -2.31343       -1.76584
C         -1.43317       -3.12342       -0.66103
C         -1.28124       -2.35636        0.42257
N         -1.27064       -0.99241        0.08435
C         -1.09508       -2.97704        1.76945
N         -0.89813       -2.13286        2.98758
C         -0.70167       -3.08201        4.16304
H         -1.63396       -2.63802       -2.79252
H         -1.43880       -0.14044       -1.95476
H         -1.45851       -4.20842       -0.66233
H         -0.18305       -3.57237        1.58792
H         -1.93245       -3.67673        1.90352
C          0.37034       -4.18513        3.88031
C         -0.25984       -2.28026        5.38173
C         -1.98085       -3.82939        4.60579
H          1.29466       -3.75950        3.44980
H          0.61219       -4.76001        4.79968
H          0.00196       -4.95792        3.17259
H         -1.07837       -1.70814        5.77154
H          0.01892       -2.93676        6.23382
H          0.54390       -1.58149        5.12755
H         -2.77142       -3.12060        4.90472
H         -2.36238       -4.52631        3.83667
H         -1.76363       -4.45534        5.50058
