110
speciation2139.ct
Na        -1.12443       -0.81574       -2.09165
Mg         2.20366        4.60991       -1.55654
C         -3.33543       -1.74825       -0.30663
C         -2.12578       -3.74578       -0.42439
O         -2.35254       -2.47691       -1.03588
C         -2.99917       -1.50280        1.17689
C         -1.34766       -4.71085       -1.30489
H         -3.42560       -0.75241       -0.78857
H         -4.33387       -2.22760       -0.40830
H         -1.57181       -3.64177        0.53244
H         -3.10592       -4.24828       -0.23913
H         -0.31025       -4.35287       -1.46119
H         -1.30062       -5.69434       -0.78277
H         -1.85798       -4.86032       -2.27809
H         -2.00528       -1.01944        1.28073
H         -3.76938       -0.84152        1.62757
H         -3.01194       -2.44854        1.75912
H          4.49222        5.54621       -0.47592
C          3.88163        7.51420       -1.07123
C          3.90827        6.01490       -1.29731
C          5.31030        8.08502       -1.03360
H          3.36173        7.97855       -1.92749
H          3.35555        7.75773       -0.13328
H          5.84878        7.69340       -0.14413
H          5.88121        7.78815       -1.94831
C          5.26608        9.60383       -0.99156
H          4.44701        5.98508       -2.25602
H          4.77485        9.98047       -1.91601
H          4.69105        9.93722       -0.10477
H          6.29578       10.01343       -0.94206
C         -0.39074        1.23712       -4.35381
C          0.38632        2.19289       -4.91624
C          1.36843        2.43819       -4.00119
C          1.24612        1.56016       -3.00146
N          0.13016        0.88123       -3.17017
C          2.24050        1.34529       -1.92500
N          3.17874        2.49141       -1.80130
C          4.47726        2.24948       -2.56865
H          0.24080        2.67323       -5.86891
H         -1.28283        0.80904       -4.78628
H          2.13567        3.12870       -4.02348
H          1.80121        1.04880       -0.96908
H          2.70808        0.37290       -2.12115
C          4.37763        2.35909       -4.11687
C          5.46612        3.29593       -2.12045
C          5.15287        0.88374       -2.25471
H          4.08216        3.38195       -4.43924
H          5.36177        2.21113       -4.59688
H          3.70300        1.58599       -4.54332
H          5.52540        3.35531       -1.01301
H          6.47155        3.15206       -2.55929
H          5.11669        4.20282       -2.56117
H          5.28344        0.73043       -1.16497
H          4.63494        0.01239       -2.70261
H          6.16101        0.85450       -2.72534
Na         3.87356        2.04103        0.19235
Mg         2.11468        4.50465        2.04398
C          1.00973        5.38751       -4.65363
C          0.98564        6.73001       -2.78864
O          1.05540        5.37917       -3.19956
C         -0.42449        5.07908       -5.16784
C         -0.35120        7.40088       -3.08303
H          1.38610        6.31663       -5.13809
H          1.71227        4.68828       -5.11859
H          1.12317        6.73978       -1.70657
H          1.80729        7.32869       -3.23411
H         -1.18638        6.76506       -2.71451
H         -0.39402        8.39897       -2.61095
H         -0.45459        7.60301       -4.16942
H         -0.87322        4.22554       -4.63130
H         -0.40809        4.89218       -6.26255
H         -1.17372        5.86453       -5.01123
H          3.13451        4.90616        4.50334
C          4.67792        3.83256        3.52216
C          3.19870        4.11941        3.72864
C          5.39511        5.08711        3.01677
H          5.10588        3.54066        4.50759
H          4.81089        2.98963        2.81094
H          5.00858        5.36400        2.01226
H          5.20273        5.93021        3.71696
C          6.90246        4.86875        2.94935
H          2.70260        3.21937        4.14845
H          7.29265        4.59826        3.95499
H          7.14790        4.05885        2.23158
H          7.39799        5.80707        2.62295
C         -0.27594        6.58226        4.41656
C          1.09289        6.57883        4.46972
C          1.55307        6.52833        3.16448
C          0.51121        6.46649        2.33409
N         -0.70078        6.60061        3.07337
C          0.61983        6.26727        0.81103
N          1.05722        4.88045        0.40061
C         -0.07193        3.89315        0.68131
H          1.67784        6.56007        5.38164
H         -0.94544        6.56109        5.26748
H          2.58903        6.48840        2.85582
H          1.34095        7.01844        0.45567
H         -0.34419        6.52432        0.32870
C         -1.41135        4.16269       -0.05655
C          0.40003        2.56119        0.21893
C         -0.41222        3.63494        2.20163
H         -1.25171        4.25057       -1.14931
H         -2.12589        3.32095        0.11597
H         -1.91434        5.06360        0.32811
H          1.38681        2.34587        0.69897
H         -0.30924        1.71747        0.42818
H          0.46883        2.66048       -0.86519
H         -1.05396        2.72720        2.32731
H         -1.05322        4.39957        2.62813
H          0.48546        3.44856        2.81290
