110
speciation2446.ct
Na        -0.49302       -2.90495        1.84032
Mg         8.23667       -3.23422       -0.53460
C         -3.29746       -3.72143        2.26825
C         -2.40593       -4.82557        0.46541
O         -2.38195       -3.60663        1.18090
C         -3.43288       -2.41246        3.03469
C         -1.52539       -4.75093       -0.76639
H         -4.32624       -3.94619        1.88884
H         -2.99016       -4.52638        2.98289
H         -2.06847       -5.67068        1.10396
H         -3.43659       -5.02911        0.09042
H         -0.46578       -4.61761       -0.47732
H         -1.62439       -5.70359       -1.33470
H         -1.84221       -3.91505       -1.42338
H         -3.72832       -1.59655        2.34254
H         -4.21845       -2.52083        3.81345
H         -2.47786       -2.15190        3.52869
H          8.82583       -4.77212       -2.62587
C         10.72071       -4.99498       -1.62904
C          9.51876       -4.13067       -2.03920
C         10.29472       -6.17973       -0.75247
H         11.21280       -5.38874       -2.54914
H         11.45476       -4.36837       -1.08086
H          9.80735       -5.79290        0.16686
H          9.56932       -6.82066       -1.30180
C         11.49613       -7.03950       -0.35251
H          9.87361       -3.32407       -2.71567
H         11.97460       -7.48892       -1.24962
H         12.24781       -6.42780        0.19015
H         11.16310       -7.86212        0.31603
C          2.57727        0.09516       -0.97735
C          2.47922        1.40660       -0.55624
C          2.10008        1.36560        0.76983
C          1.98290        0.02959        1.09235
N          2.34403       -0.73385        0.05888
C          1.55437       -0.53780        2.41707
N          1.50518       -2.03023        2.33718
C          1.75596       -2.70140        3.64796
H          2.68086        2.29265       -1.14398
H          2.87147       -0.22360       -1.96774
H          1.94366        2.21169        1.42591
H          0.55144       -0.14494        2.66827
H          2.29196       -0.13376        3.12477
C          0.53217       -2.53459        4.56226
C          1.96392       -4.20504        3.36554
C          3.03457       -2.22320        4.40725
H         -0.36721       -2.94411        4.05765
H          0.66675       -3.07191        5.52018
H          0.35776       -1.45957        4.77676
H          2.87955       -4.34970        2.75294
H          2.10378       -4.77332        4.31020
H          1.09855       -4.63011        2.81908
H          3.94183       -2.34016        3.77678
H          2.97259       -1.17696        4.76656
H          3.17706       -2.82136        5.33277
Na         2.47551       -2.76535        0.61700
Mg         6.01570       -5.18042       -2.26151
C          4.90639       -6.24376       -4.56276
C          5.23142       -7.84029       -2.82413
O          5.71311       -6.66957       -3.46753
C          3.38987       -6.13936       -4.29535
C          5.30708       -9.09897       -3.69011
H          5.27322       -5.23652       -4.84749
H          5.09336       -6.87821       -5.45547
H          5.88855       -8.04334       -1.95826
H          4.20143       -7.70310       -2.44441
H          6.36075       -9.32125       -3.95763
H          4.89985       -9.95549       -3.10950
H          4.69938       -9.00021       -4.61156
H          3.16343       -5.58579       -3.36461
H          2.90573       -5.61313       -5.14528
H          2.92339       -7.14116       -4.21255
H         10.18277       -2.02683        0.95880
C          8.49986       -1.44829        2.19021
C          9.12472       -1.72533        0.80839
C          8.47428       -2.71376        3.05278
H          9.09268       -0.66018        2.71274
H          7.46434       -1.06655        2.05902
H          7.87493       -3.48379        2.52623
H          9.50953       -3.09385        3.19698
C          7.85228       -2.46587        4.42996
H          9.12921       -0.76536        0.24623
H          8.46912       -1.75775        5.02478
H          6.82406       -2.05749        4.33053
H          7.79413       -3.42738        4.98439
C          2.48184       -5.82986        0.10657
C          3.28279       -6.93768       -0.03200
C          4.58447       -6.48068       -0.00632
C          4.53031       -5.10272        0.10814
N          3.23725       -4.71815        0.21294
C          5.74559       -4.18686        0.23997
N          6.32608       -3.65289       -1.02441
C          5.62289       -2.61144       -1.78069
H          2.95124       -7.96669       -0.11485
H          1.40244       -5.84468        0.16010
H          5.47255       -7.09050       -0.04867
H          5.62158       -3.42622        1.03374
H          6.53739       -4.85740        0.64083
C          5.38888       -1.39919       -0.89179
C          6.52132       -2.27172       -2.97798
C          4.29213       -3.10621       -2.39058
H          6.33301       -1.04220       -0.44189
H          4.96691       -0.58216       -1.49506
H          4.69023       -1.67278       -0.07267
H          6.68104       -3.19010       -3.59173
H          6.04816       -1.50815       -3.63186
H          7.51304       -1.91354       -2.64122
H          4.49807       -3.96434       -3.04497
H          3.52738       -3.38600       -1.66137
H          3.82159       -2.32452       -3.02125
