81
speciation625.ct
Na         1.30491        1.85613       -0.05216
Mg         3.37446        0.02416       -1.47341
C          1.67817        0.56754       -3.53501
C          3.88064        1.40866       -3.95211
O          2.89296        1.07580       -2.98762
C          1.81837       -0.54934       -4.57911
C          3.49369        2.65359       -4.75901
H          1.10936        0.14033       -2.68564
H          1.05109        1.39805       -3.92308
H          4.81666        1.65584       -3.41025
H          4.12906        0.55873       -4.62036
H          3.34962        3.51991       -4.07810
H          4.29839        2.89849       -5.48495
H          2.55943        2.48734       -5.33468
H          2.44590       -1.37462       -4.18472
H          0.81118       -0.94979       -4.82253
H          2.24884       -0.16481       -5.52782
H          5.12465       -2.00198       -1.07067
C          6.33694       -0.90686       -2.45580
C          4.95497       -1.36010       -1.95572
C          7.10600       -0.09522       -1.40245
H          6.92996       -1.81793       -2.69630
H          6.22571       -0.31249       -3.38370
H          6.54733        0.83539       -1.16654
H          7.21831       -0.69286       -0.47179
C          8.50585        0.27341       -1.90531
H          4.49195       -1.99859       -2.73446
H          9.10020       -0.64348       -2.11140
H          8.44194        0.87762       -2.83519
H          9.04148        0.86749       -1.13412
C         -1.77825        1.03585       -0.16901
C         -2.46964       -0.15804       -0.15857
C         -1.52102       -1.16361       -0.10223
C         -0.29556       -0.52520       -0.07020
N         -0.45681        0.80028       -0.09824
C          1.05803       -1.16551       -0.02236
N          2.12198       -0.13791        0.13044
C          2.78675       -0.11423        1.45806
H         -3.54414       -0.27905       -0.19568
H         -2.21622        2.01784       -0.23100
H         -1.70895       -2.22618       -0.08359
H          1.21809       -1.73372       -0.96066
H          1.05285       -1.90007        0.80521
C          3.58077       -1.41216        1.71051
C          3.75520        1.07677        1.45376
C          1.77408        0.10013        2.61418
H          4.27916       -1.60244        0.88155
H          4.16888       -1.33462        2.64955
H          2.91998       -2.29604        1.81898
H          3.19313        2.02899        1.35852
H          4.33481        1.12323        2.40035
H          4.46063        1.00226        0.59981
H          1.19211        1.03447        2.46477
H          1.05596       -0.73993        2.71002
H          2.30926        0.17735        3.58639
Mg        -0.31537        7.14981        2.18180
C          2.95025        4.54951       -0.53086
C          2.88191        5.89641       -0.24529
C          1.71195        6.08970        0.46373
C          1.11938        4.84713        0.57942
N          1.87615        3.91394       -0.03300
C         -0.13755        4.48926        1.31165
N         -1.11746        5.58554        1.33968
C         -2.36539        5.29909        2.08538
H          3.60763        6.65411       -0.51165
H          3.75262        4.05355       -1.06540
H          1.35212        7.03184        0.85724
H         -0.56972        3.60211        0.80249
H          0.17391        4.19534        2.33078
C         -2.08196        5.00867        3.57628
C         -3.26186        6.54603        1.99574
C         -3.14065        4.11177        1.47756
H         -1.52154        5.84929        4.03341
H         -3.03298        4.86794        4.13400
H         -1.49994        4.07288        3.70915
H         -3.51035        6.77006        0.93591
H         -4.21337        6.38572        2.54975
H         -2.74589        7.42480        2.43242
H         -3.33238        4.27923        0.39471
H         -2.58223        3.16671        1.61756
H         -4.11747        3.97154        1.98899
