110
speciation2291.ct
Na         4.54878        5.89024       -3.78291
Mg         1.37004        5.52768        1.86025
C          7.63971        7.06528       -4.18073
C          7.69721        5.17183       -5.44791
O          6.78402        6.09694       -4.77628
C          6.92460        7.83415       -3.10940
C          7.14197        4.18883       -6.48433
H          8.52787        6.59432       -3.68056
H          8.00697        7.78062       -4.95668
H          8.46926        5.74062       -6.02993
H          8.25066        4.56307       -4.69434
H          6.61176        4.67555       -7.30701
H          8.01148        3.67690       -6.97307
H          6.54046        3.40546       -5.98119
H          6.57796        7.11817       -2.33887
H          7.64674        8.55059       -2.66017
H          6.07857        8.38163       -3.56419
H         -1.11891        5.42712        2.67274
C         -0.45613        6.86050        4.15465
C         -0.21008        5.63176        3.27625
C         -0.70161        8.15726        3.36969
H         -1.33932        6.66082        4.80345
H          0.42409        7.00500        4.81545
H         -0.85050        8.97495        4.11105
H          0.18823        8.40048        2.75170
C         -1.94053        8.10082        2.47287
H         -0.06544        4.75880        3.94540
H         -1.80636        7.35944        1.65875
H         -2.84368        7.83982        3.06545
H         -2.10166        9.09468        2.00459
C          5.43211        3.19245       -2.51812
C          5.11102        1.86378       -2.80785
C          4.17815        1.91851       -3.81604
C          3.96446        3.23683       -4.10198
N          4.73918        3.99569       -3.31155
C          3.04661        3.79203       -5.18210
N          3.05578        5.27308       -5.20800
C          2.90717        5.92475       -6.53324
H          5.53452        0.98693       -2.34333
H          6.17969        3.51631       -1.79774
H          3.69686        1.09321       -4.30914
H          2.00931        3.44605       -4.98361
H          3.36835        3.34724       -6.14380
C          1.64447        5.44375       -7.28488
C          2.79248        7.44428       -6.32341
C          4.15069        5.66169       -7.38594
H          0.72534        5.68968       -6.71192
H          1.57701        5.94471       -8.27713
H          1.66442        4.35014       -7.47009
H          3.69222        7.83793       -5.80413
H          2.70441        7.96311       -7.30502
H          1.89519        7.69279       -5.71899
H          5.02809        6.00413       -6.80704
H          4.25908        4.58928       -7.64682
H          4.11652        6.22526       -8.34099
Na        -1.11868        5.23115       -1.05079
Mg         1.46495        5.73929       -4.16681
C         -2.85516        7.25943       -2.72982
C         -4.18552        5.83095       -1.50342
O         -2.98173        5.93753       -2.23926
C         -1.55944        7.42035       -3.51059
C         -4.34544        4.41901       -0.95828
H         -3.68679        7.47617       -3.43959
H         -2.86239        8.00428       -1.90110
H         -4.21434        6.54813       -0.65184
H         -5.05286        6.00905       -2.18067
H         -3.54891        4.19910       -0.21774
H         -5.33444        4.32726       -0.45872
H         -4.29666        3.67846       -1.78468
H         -1.51326        6.68191       -4.33832
H         -1.52049        8.44334       -3.94490
H         -0.68521        7.28402       -2.84114
H          4.06821        6.02321        1.85534
C          3.75281        6.77559        3.86700
C          3.27369        6.56426        2.41176
C          3.91158        5.43181        4.59098
H          4.71444        7.34331        3.87712
H          2.98965        7.38859        4.39377
H          2.92879        4.93227        4.50150
H          4.68543        4.79888        4.09992
C          4.23265        5.53938        6.09224
H          3.17060        7.56551        1.94004
H          5.32599        5.57015        6.29760
H          3.73658        6.41391        6.56532
H          3.84205        4.62706        6.59235
C          2.91247        8.27758       -1.90673
C          1.94074        8.63463       -0.97183
C          1.39007        7.46921       -0.50993
C          2.04203        6.43640       -1.17571
N          3.00312        6.93176       -2.05104
C          1.69945        4.95848       -0.98864
N          0.78453        4.50955        0.16330
C          0.63821        3.03185        0.15575
H          1.64332        9.63773       -0.66958
H          3.50485        9.01124       -2.45029
H          0.57710        7.38364        0.20823
H          1.23945        4.66274       -1.95873
H          2.69281        4.51396       -0.90160
C          2.01822        2.36110        0.38253
C         -0.37391        2.69747        1.24798
C          0.03230        2.46947       -1.17180
H          2.54048        2.82340        1.24490
H          1.94283        1.26521        0.50563
H          2.67390        2.48569       -0.50949
H         -1.35967        3.13481        0.96045
H         -0.49938        1.60024        1.35519
H         -0.06803        3.13314        2.21177
H         -0.91090        2.98934       -1.44669
H         -0.22388        1.39250       -1.05022
H          0.71692        2.51785       -2.04771
