66
speciation173.ct
Na         0.20741        6.47133       -3.10403
Mg         4.66791        4.14012       -1.97456
H          6.39436        2.54675       -3.36657
C          4.59535        1.39087       -3.03546
C          5.65395        2.37356       -2.55639
C          3.90240        1.95944       -4.27496
H          5.07046        0.41568       -3.28648
H          3.85792        1.22981       -2.21994
H          3.46858        2.95538       -4.03782
H          4.65279        2.08034       -5.08793
C          2.78881        1.04199       -4.76277
H          6.19279        1.94879       -1.68136
H          3.19177        0.03433       -5.00140
H          2.00180        0.94970       -3.98504
H          2.33621        1.47204       -5.68119
C          3.76713        2.73772        0.46042
C          2.81102        2.74912        1.45510
C          1.92500        3.74949        1.13485
C          2.34462        4.26655       -0.07237
N          3.49316        3.67795       -0.46487
C          1.62588        5.33397       -0.83763
N          0.86005        4.77483       -1.97123
C         -0.39319        4.01312       -1.69304
H          2.76494        2.10617        2.32216
H          4.62718        2.08357        0.42321
H          1.04295        4.03913        1.69234
H          2.38471        6.04296       -1.22926
H          0.97670        5.94298       -0.18011
C         -1.34893        4.78410       -0.75282
C         -1.10376        3.80993       -3.04149
C         -0.12230        2.60035       -1.12820
H         -1.59557        5.78131       -1.17598
H         -2.29524        4.22027       -0.60784
H         -0.90944        4.92465        0.25670
H         -0.44916        3.24500       -3.73936
H         -2.04813        3.23536       -2.90611
H         -1.36239        4.78191       -3.50663
H          0.62109        2.06122       -1.75253
H          0.21257        2.60429       -0.08758
H         -1.06111        2.00614       -1.10190
Mg         5.05949        4.48187       -7.03366
C          5.07384        6.95317       -1.46753
C          5.41862        8.19599       -1.96312
C          5.70346        8.01393       -3.29526
C          5.50775        6.66629       -3.55794
N          5.12856        6.01708       -2.44037
C          5.69680        6.03895       -4.90222
N          4.47461        5.40185       -5.41563
C          3.33237        6.26101       -5.82297
H          5.45293        9.12909       -1.41430
H          4.79666        6.74998       -0.44239
H          6.00050        8.78373       -3.99935
H          6.08809        6.77549       -5.63529
H          6.47486        5.25879       -4.79440
C          3.74977        7.37449       -6.80759
C          2.31875        5.34462       -6.53457
C          2.62227        6.87574       -4.60340
H          4.24261        6.93971       -7.70401
H          2.86073        7.95024       -7.14312
H          4.44208        8.10032       -6.33342
H          1.98494        4.52850       -5.85555
H          1.42449        5.91834       -6.85808
H          2.77638        4.88269       -7.43599
H          2.37276        6.07598       -3.87686
H          3.23455        7.64052       -4.09907
H          1.68921        7.39292       -4.91292
