80
speciation857.ct
Na         2.71202       -1.60552        0.21096
Mg         1.96646        4.54558       -1.01597
H          3.37262        6.89928       -1.15493
C          4.67957        5.82440       -2.48496
C          3.73412        5.85667       -1.26311
C          3.99347        6.22340       -3.79894
H          5.51641        6.54023       -2.30557
H          5.11521        4.80845       -2.58829
H          3.19080        5.49936       -4.01018
H          3.56137        7.24338       -3.71004
C          4.95783        6.19981       -4.98462
H          4.35212        5.61128       -0.37294
H          5.77479        6.94102       -4.84913
H          5.39978        5.18918       -5.11116
H          4.40793        6.45655       -5.91914
C          5.58641       -1.07204       -0.39649
C          6.63355       -0.20399       -0.59387
C          6.10857        1.07077       -0.52614
C          4.74284        0.93246       -0.30807
N          4.44887       -0.38912       -0.20165
C          3.78795        2.12175       -0.10602
N          2.83195        2.47382       -1.19850
C          1.74335        1.50634       -1.49612
H          7.67067       -0.48317       -0.75624
H          5.65377       -2.15187       -0.37928
H          6.66874        1.98435       -0.62128
H          3.27331        1.99164        0.86223
H          4.43859        3.01427        0.00385
C          0.89749        1.19727       -0.24566
C          0.86302        2.20181       -2.48176
C          2.19098        0.22028       -2.23104
H          0.55552        2.14911        0.21002
H         -0.00058        0.60195       -0.51582
H          1.47585        0.63771        0.51205
H          1.43401        2.50454       -3.39339
H         -0.00421        1.57952       -2.79190
H          0.49577        3.06589       -1.92243
H          2.84176        0.45077       -3.10053
H          2.68684       -0.50352       -1.60684
H          1.30347       -0.33646       -2.60802
Na         4.00337        2.56194       -2.99207
Mg        -0.44876        3.69848        1.08936
H          0.44677        6.31746       -2.89908
C         -0.91667        4.67996       -3.24558
C          0.52240        5.21264       -2.93114
C         -1.54798        5.26040       -4.52495
H         -0.91131        3.59432       -3.42862
H         -1.58464        4.87993       -2.38463
H         -1.68593        6.35675       -4.41419
H         -0.88407        5.06479       -5.39519
C         -2.90710        4.60568       -4.81511
H          1.13177        4.97790       -3.82106
H         -2.79123        3.50904       -4.97215
H         -3.61451        4.76850       -3.97421
H         -3.35247        5.03427       -5.73847
C          0.73837        4.76777        5.65919
C         -0.05536        3.77076        5.14883
C          0.30471        3.58940        3.81762
C          1.27944        4.44504        3.52082
N          1.62825        5.21793        4.64706
C          1.94541        4.62288        2.13670
N          1.01477        4.98359        1.01116
C          0.30675        6.30190        1.20598
H         -0.82976        3.24727        5.69105
H          0.70080        5.15320        6.66089
H         -0.14862        2.87832        3.13831
H          2.41955        3.66203        1.91072
H          2.75650        5.36946        2.21682
C          1.27729        7.50194        1.32734
C         -0.60591        6.53551        0.00566
C         -0.65210        6.34260        2.43636
H          1.92664        7.57914        0.43585
H          0.70732        8.44936        1.41802
H          1.91074        7.42728        2.23425
H         -1.31839        5.68865       -0.11343
H         -1.18976        7.47149        0.11417
H          0.01215        6.64839       -0.88587
H         -1.35056        5.47687        2.43081
H         -0.13308        6.41312        3.39969
H         -1.26336        7.26946        2.42857
