83
speciation721.ct
Na         2.69444       -3.49348        0.50995
Li         3.71427        1.83263       -2.87542
C          1.17229        2.21054       -4.21296
C          2.00013        0.03876       -4.59328
O          2.29088        1.34377       -4.11570
C          0.01861        1.82035       -3.28646
C          3.27165       -0.77904       -4.74162
H          1.51092        3.22225       -3.92403
H          0.82389        2.30282       -5.26784
H          1.31740       -0.49865       -3.90083
H          1.54913        0.08749       -5.61193
H          3.76803       -0.90074       -3.77138
H          3.02023       -1.79198       -5.12405
H          3.97841       -0.28276       -5.43507
H          0.39020        1.70128       -2.24879
H         -0.75753        2.61451       -3.30693
H         -0.46133        0.87694       -3.62121
C          4.82516       -4.76117        2.54986
C          5.19833       -6.06941        2.78746
C          4.42686       -6.85504        1.95427
C          3.60649       -5.99191        1.25952
N          3.86035       -4.72515        1.60793
C          2.61743       -6.34957        0.18481
N          1.57100       -5.30830        0.01243
C          0.84458       -5.34293       -1.28921
H          5.96064       -6.41208        3.47401
H          5.25461       -3.88209        3.01737
H          4.45865       -7.93329        1.86383
H          2.12900       -7.31350        0.43331
H          3.23422       -6.48294       -0.71715
C          0.06614       -6.66382       -1.41997
C         -0.17630       -4.18262       -1.32307
C          1.78435       -5.15482       -2.50657
H         -0.63881       -6.77319       -0.56639
H         -0.52061       -6.68409       -2.36383
H          0.75175       -7.53345       -1.42835
H          0.32744       -3.19267       -1.29537
H         -0.77147       -4.21162       -2.26409
H         -0.88207       -4.24129       -0.46810
H          2.34203       -4.19863       -2.42878
H          2.50837       -5.98115       -2.62969
H          1.19251       -5.13007       -3.44804
Na         1.98488       -3.32090        0.22018
C          4.13034        4.34226       -1.36284
C          4.04493        4.61900       -3.66044
O          4.21573        3.68222       -2.61373
C          4.37194        3.37548       -0.22466
C          4.39174        3.98922       -4.99824
H          4.94302        5.10052       -1.28978
H          3.13666        4.82518       -1.21622
H          3.00395        5.01083       -3.68512
H          4.75836        5.46743       -3.53713
H          3.69948        3.15913       -5.23156
H          4.30650        4.75701       -5.79687
H          5.43307        3.60525       -4.97740
H          5.32887        2.83858       -0.37694
H          4.43583        3.93113        0.73549
H          3.52889        2.66472       -0.17307
C          6.22246        0.62059       -1.66993
C          6.67920       -0.47437       -0.95623
C          5.58313       -1.26764       -0.71196
C          4.50409       -0.61014       -1.27225
N          4.88964        0.53630       -1.86902
C          3.09875       -1.08376       -1.23939
N          2.70055       -1.43006        0.11807
C          2.40841       -0.46115        1.17945
H          7.69846       -0.67258       -0.64493
H          6.83948        1.43357       -2.02368
H          5.57040       -2.20677       -0.17053
H          3.05908       -2.02275       -1.82838
H          2.40191       -0.36291       -1.70464
C          1.38167        0.57948        0.70239
C          1.81644       -1.24430        2.36277
C          3.70836        0.21273        1.64976
H          0.44645        0.07368        0.37764
H          1.13738        1.28912        1.52100
H          1.77275        1.16425       -0.15264
H          2.53353       -2.01896        2.71427
H          1.58895       -0.56630        3.21289
H          0.87853       -1.75867        2.06033
H          4.44566       -0.55596        1.96850
H          4.16996        0.80198        0.84250
H          3.51475        0.89882        2.49938
