110
speciation1921.ct
Na         1.17494        1.85017        0.32396
Mg         3.50193       -0.13530       -5.04872
C          1.51209        2.26666        3.62576
C          0.09217        3.75746        2.50966
O          1.21027        2.89098        2.36648
C          0.38781        1.37320        4.21547
C          0.35220        4.94548        3.45053
H          2.46111        1.72847        3.51059
H          1.86043        2.98360        4.39191
H         -0.15472        4.17395        1.52074
H         -0.81627        3.19736        2.81966
H          1.21272        5.54166        3.08333
H         -0.55098        5.58504        3.49793
H          0.55108        4.63046        4.49524
H         -0.07166        0.69920        3.46233
H          0.79797        0.74967        5.03980
H         -0.42960        1.98628        4.64071
H          4.23435        2.24065       -5.78304
C          3.08220        1.80206       -7.54129
C          4.03981        1.36967       -6.44331
C          3.64704        3.00448       -8.31690
H          2.92089        0.95690       -8.23794
H          2.11214        2.08187       -7.08682
H          3.80382        3.86004       -7.62187
H          4.62698        2.74448       -8.77784
C          2.68003        3.43139       -9.41533
H          4.97731        1.07596       -6.92984
H          2.53321        2.60350      -10.14062
H          1.69804        3.70205       -8.97250
H          3.08375        4.31305       -9.95511
C         -1.87405        0.91642        0.04382
C         -2.41531       -0.32076       -0.21810
C         -1.36902       -1.20942       -0.35809
C         -0.21014       -0.45740       -0.17366
N         -0.52759        0.82613        0.07468
C          1.20162       -1.01265       -0.24015
N          2.24500        0.03300       -0.00400
C          3.19285       -0.27863        1.08522
H         -3.47108       -0.55648       -0.30926
H         -2.41623        1.83581        0.19387
H         -1.42892       -2.25952       -0.56046
H          1.37471       -1.46255       -1.23340
H          1.25138       -1.83724        0.49424
C          3.96813       -1.57782        0.83718
C          4.14110        0.93371        1.15490
C          2.46406       -0.49320        2.40816
H          4.22575       -1.64787       -0.21243
H          4.84265       -1.65458        1.52284
H          3.34334       -2.47861        1.00461
H          3.57014        1.86958        1.34395
H          4.90105        0.82100        1.95540
H          4.66851        1.06079        0.18639
H          1.63492        0.19531        2.37468
H          1.96725       -1.47779        2.50536
H          3.14808       -0.39376        3.28029
Na         6.93261        0.45345       -6.69610
Mg         3.38218        0.08335       -1.63630
C          0.76044        4.15293       -1.43711
C          1.37559        2.20765       -2.66418
O          1.53860        2.96838       -1.46245
C         -0.71140        3.98719       -1.83013
C          1.84164        2.95406       -3.93258
H          0.79808        4.51349       -0.39821
H          1.24987        4.94698       -2.03804
H          1.98691        1.29288       -2.58933
H          0.33195        1.85031       -2.79461
H          2.90253        3.25227       -3.87320
H          1.71612        2.28865       -4.81083
H          1.25744        3.87436       -4.11769
H         -1.17169        3.16770       -1.25171
H         -1.25963        4.92646       -1.61916
H         -0.82412        3.77287       -2.91433
H          2.87216       -2.88543       -5.69484
C          1.78354       -1.95708       -7.22105
C          2.33036       -1.92046       -5.79790
C          2.91631       -2.04571       -8.25195
H          1.14082       -2.86221       -7.33455
H          1.16257       -1.05524       -7.39005
H          3.60245       -1.18558       -8.12935
H          3.50525       -2.97858       -8.09955
C          2.35584       -2.04518       -9.67207
H          1.48278       -1.97586       -5.08308
H          1.71025       -2.93513       -9.83543
H          1.75763       -1.12546       -9.84530
H          3.18880       -2.07110      -10.40561
C          7.72944        2.79683       -5.29710
C          7.76621        3.72137       -4.29432
C          6.82936        3.32417       -3.37129
C          6.23767        2.15648       -3.84052
N          6.80349        1.84976       -5.04420
C          5.15927        1.45206       -2.96479
N          4.51935        0.13370       -3.26860
C          5.54045       -1.00853       -3.24198
H          8.42063        4.58115       -4.23879
H          8.34449        2.81302       -6.19556
H          6.62176        3.82403       -2.43678
H          4.35480        2.18205       -2.81046
H          5.60388        1.37973       -1.95322
C          6.45094       -1.06485       -1.98604
C          4.78931       -2.33557       -3.35882
C          6.51901       -0.99388       -4.43302
H          5.91910       -1.12341       -1.05127
H          7.11005       -1.96217       -2.03209
H          7.12346       -0.18977       -1.90737
H          4.30859       -2.35356       -4.33327
H          5.48943       -3.20233       -3.35807
H          4.03653       -2.47428       -2.56138
H          5.96694       -0.91171       -5.38670
H          7.30370       -0.23325       -4.30451
H          7.12165       -1.92846       -4.47191
