80
speciation959.ct
Na         2.85471        6.65953        0.90400
Mg        -1.63021        3.16541        3.42003
H         -2.52882        1.71908        5.36591
C         -4.23113        3.00724        4.99477
C         -2.72826        2.77709        5.09487
C         -4.57565        4.46432        4.66478
H         -4.65933        2.33333        4.22318
H         -4.68816        2.75089        5.97633
H         -5.68245        4.56591        4.65438
H         -4.17439        5.13970        5.45270
C         -4.03440        4.89236        3.30218
H         -2.30752        3.42973        5.88921
H         -2.92565        4.86619        3.29534
H         -4.42402        4.22039        2.50833
H         -4.35764        5.93125        3.08393
C          2.77928        5.49845       -2.15150
C          3.59376        5.61674       -3.26527
C          4.60711        6.48913       -2.92624
C          4.35398        6.86923       -1.62533
N          3.26218        6.25536       -1.14693
C          5.17074        7.79912       -0.80392
N          4.50019        8.01566        0.49099
C          5.38804        8.31739        1.63635
H          3.47466        5.11608       -4.21652
H          1.90090        4.87459       -2.07696
H          5.43400        6.80560       -3.55103
H          5.27506        8.77659       -1.32037
H          6.17344        7.34177       -0.71027
C          6.19567        9.60302        1.37659
C          4.49770        8.53758        2.85957
C          6.33273        7.13433        1.96311
H          5.50950       10.45260        1.17019
H          6.81281        9.85913        2.26482
H          6.87722        9.48015        0.50985
H          3.97239        7.59051        3.08066
H          5.09637        8.80704        3.75554
H          3.75296        9.34088        2.67104
H          5.74373        6.21026        2.15123
H          7.06309        6.92312        1.15989
H          6.92758        7.35970        2.87423
Na         3.18948        9.67869        0.18937
Mg        -1.48118        4.92941        0.69489
H         -2.79086        5.83937       -1.34028
C         -1.60455        7.57572       -0.79108
C         -2.42647        6.34940       -0.42389
C         -1.16824        8.33009        0.46810
H         -0.71497        7.26322       -1.37760
H         -2.23733        8.24314       -1.41785
H         -2.06421        8.62026        1.06145
H         -0.52352        7.67476        1.09312
C         -0.40227        9.59807        0.10389
H         -3.30919        6.66737        0.17157
H          0.50912        9.34478       -0.47738
H         -1.04554       10.27357       -0.50117
H         -0.10272       10.13199        1.02992
C          1.48220        7.07813        3.72987
C          0.75128        6.47461        4.72613
C          0.39473        5.23358        4.25059
C          0.92490        5.13805        2.97362
N          1.61517        6.25531        2.67178
C          0.84259        3.92864        2.09300
N         -0.55907        3.54422        1.78624
C         -0.70396        2.36848        0.90435
H          0.52944        6.89172        5.69989
H          1.92484        8.06115        3.80267
H         -0.16753        4.48135        4.78864
H          1.40478        4.15523        1.16688
H          1.35172        3.11400        2.64547
C          0.04630        1.14085        1.46380
C         -2.20274        2.02949        0.83367
C         -0.22761        2.70950       -0.52722
H         -0.27642        0.94968        2.51093
H         -0.16684        0.23658        0.85653
H          1.14558        1.28902        1.45116
H         -2.78748        2.91481        0.50165
H         -2.38429        1.20230        0.11282
H         -2.58425        1.71657        1.82910
H         -0.82100        3.55616       -0.93782
H          0.84182        2.99317       -0.56322
H         -0.35560        1.83827       -1.20303
