83
speciation260.ct
Na         0.70843       -0.06535        0.40508
Mg         2.89433        4.05879       -2.66048
C         -0.45189        1.98055        2.56251
C         -0.10623        0.13984        3.87039
O         -0.30544        0.57842        2.50963
C         -0.40787        2.46303        1.18148
C         -1.36166        0.32435        4.77857
H         -1.45277        2.27771        2.94155
H          0.37069        2.49125        3.12323
H          0.15473       -0.93534        3.88700
H          0.74341        0.67884        4.35579
H         -2.21848       -0.26770        4.40195
H         -1.14782        0.01088        5.82676
H         -1.69057        1.38482        4.87204
H         -1.21136        1.97652        0.58975
H         -0.53733        3.56372        1.18386
H          0.58913        2.14763        0.82307
C         -0.48081        0.63107       -2.64156
C         -0.82674        1.46457       -3.69241
C         -0.52228        2.73233       -3.30421
C          0.03409        2.64187       -2.04836
N          0.03943        1.32581       -1.59359
C          0.47468        3.88648       -1.29762
N          1.21802        4.87464       -2.10654
C          1.59216        6.11319       -1.36772
H         -1.26391        1.19139       -4.64674
H         -0.61377       -0.44020       -2.66298
H         -0.67983        3.62929       -3.88792
H         -0.45771        4.36384       -0.93239
H          1.14324        3.57187       -0.49606
C          2.46854        5.78934       -0.13587
C          2.40905        6.99630       -2.32472
C          0.34624        6.92677       -0.93302
H          3.35616        5.19604       -0.44344
H          2.81613        6.72019        0.35744
H          1.90496        5.22228        0.63407
H          1.79051        7.32106       -3.18999
H          2.76960        7.91256       -1.80540
H          3.29021        6.44375       -2.71006
H         -0.32026        7.11566       -1.80292
H         -0.24047        6.41200       -0.14462
H          0.64882        7.91322       -0.51610
Na         0.21205        5.62676       -3.84921
C          1.29937       -3.19268       -0.45934
C         -0.91934       -3.02266        0.17991
O          0.33014       -2.34040        0.15724
C          0.96285       -3.64364       -1.89807
C         -1.92536       -2.32607        1.05801
H          2.24937       -2.65850       -0.46121
H          1.50366       -4.09687        0.16512
H         -1.35306       -3.08061       -0.84011
H         -0.80313       -4.05482        0.60116
H         -2.08322       -1.29529        0.68444
H         -2.88331       -2.89041        0.99910
H         -1.57537       -2.31716        2.11147
H          0.66300       -2.77509       -2.50589
H          1.83333       -4.15531       -2.36540
H          0.12588       -4.37351       -1.91692
C          3.79377       -0.47485        1.38037
C          5.14287       -0.28437        1.12477
C          5.22543        0.45116       -0.02412
C          3.91530        0.65704       -0.43175
N          3.02779        0.11041        0.43084
C          3.59312        1.30758       -1.73960
N          4.27889        0.64441       -2.87548
C          3.87303       -0.73560       -3.25062
H          5.98341       -0.66299        1.69325
H          3.40516       -1.05036        2.20748
H          6.12547        0.75431       -0.53969
H          2.50797        1.36946       -1.90401
H          3.96478        2.35046       -1.68696
C          2.35892       -0.83378       -3.47240
C          4.57340       -1.10069       -4.56645
C          4.33539       -1.77536       -2.21083
H          2.01938       -0.08661       -4.22146
H          2.09584       -1.83977       -3.85512
H          1.82134       -0.67192       -2.51757
H          5.67498       -1.02107       -4.44956
H          4.33378       -2.15144       -4.85155
H          4.24756       -0.43510       -5.39091
H          5.42925       -1.70946       -2.04046
H          3.84506       -1.63446       -1.25098
H          4.07755       -2.80669       -2.53194
