83
speciation574.ct
Na         0.97443       -0.27736        0.46242
Mg         3.65959        4.51378        1.76139
C         -1.90617        1.08316        0.38329
C         -0.78385        2.72724        1.44902
O         -0.71684        1.34381        1.08394
C         -1.98713        1.65096       -1.07073
C          0.45876        3.17655        2.08589
H         -1.99120        0.03030        0.48398
H         -2.78006        1.46599        0.93189
H         -0.91274        3.40781        0.58381
H         -1.59925        2.89362        2.18795
H          1.26279        3.22062        1.33238
H          0.35556        4.19828        2.48978
H          0.60831        2.44636        2.88466
H         -1.14000        1.39298       -1.72346
H         -2.84330        1.26258       -1.64022
H         -2.10900        2.75757       -1.04414
C          4.47277        7.48890        0.57271
C          3.89072        7.81557       -0.70288
C          3.00333        6.86263       -1.38914
C          3.03803        5.68191       -0.66918
N          4.08935        6.29461        0.98417
C          1.24793        1.51474       -0.75466
N         -0.20437       -1.80431       -0.77545
C         -0.10667       -3.03199        0.07835
H          4.17570        8.75491       -1.15527
H          5.29389        8.02045        1.06302
H          2.46094        7.09701       -2.29024
H          1.63254        1.48994        0.24929
H          0.36760        2.10956       -0.67739
C         -0.48159       -2.72792        1.54482
C         -1.03282       -4.12494       -0.48742
C          1.24111       -3.69480        0.01755
H         -1.53266       -2.39804        1.64652
H         -0.31977       -3.63394        2.17321
H          0.18318       -1.93104        1.94486
H         -0.77985       -4.36029       -1.54637
H         -0.91452       -5.07210        0.09520
H         -2.08292       -3.83258       -0.42099
H          1.66925       -3.61493       -1.01774
H          1.74387       -3.31082        0.90251
H          1.29671       -4.75429        0.32506
Na        -2.53446       -1.40292       -0.61284
C         -5.13294        0.18951        0.23763
C         -5.53157       -2.10686        0.11655
O         -4.81540       -1.01000       -0.45366
C         -4.77260        0.17780        1.73824
C         -5.21857       -3.43937       -0.56007
H         -4.57538        0.98997       -0.27224
H         -6.19685        0.48140        0.09629
H         -5.29057       -2.25288        1.19267
H         -6.62252       -1.93651       -0.00613
H         -4.18987       -3.76277       -0.33824
H         -5.89026       -4.22417       -0.14550
H         -5.36810       -3.38717       -1.65620
H         -3.80604       -0.34402        1.90359
H         -4.69627        1.21906        2.11857
H         -5.55158       -0.33103        2.33955
C          2.83915        2.79332        3.82762
C          2.45520        1.55958        4.25251
C          2.63610        0.73476        3.17624
C          3.27298        1.48873        2.17679
N          3.22983        2.73296        2.53861
C          3.91909        1.19740        0.86844
N          3.52327       -0.10803        0.40154
C          4.46123       -1.21666        0.81589
H          2.05129        1.29104        5.21884
H          2.78817        3.70360        4.40906
H          2.33763       -0.27676        3.25146
H          5.01482        1.36209        0.92640
H          3.64438        1.96997        0.11618
C          4.49336       -1.40085        2.34624
C          3.91562       -2.46548        0.20411
C          5.90450       -1.11767        0.28453
H          3.49112       -1.70833        2.65570
H          5.09051       -2.26333        2.68937
H          4.90044       -0.50253        2.86666
H          4.17586       -2.68615       -0.84272
H          4.00596       -3.36227        0.86522
H          2.91909       -2.12929        0.01933
H          5.91008       -1.19297       -0.82507
H          6.43982       -0.20316        0.58513
H          6.48228       -1.98899        0.67727
