110
speciation2603.ct
Na         3.48550       -0.32174        1.26953
Mg         3.22455       -0.41676       -1.70455
C          1.39983       -0.94276       -4.05448
C          3.17528        0.47910       -4.62114
O          2.36178       -0.02959       -3.55138
C          2.00220       -2.13168       -4.77749
C          2.39316        1.22162       -5.73761
H          0.87761       -1.38350       -3.22677
H          0.59926       -0.42402       -4.63252
H          3.87033        1.23414       -4.23437
H          3.80905       -0.31808       -5.05272
H          1.88640        2.12774       -5.34052
H          3.10114        1.53853       -6.53286
H          1.63965        0.58612       -6.24681
H          2.80304       -2.53997       -4.12818
H          1.20356       -2.88298       -4.94182
H          2.42770       -1.85600       -5.76102
H          4.80127        1.93858       -0.71573
C          3.15525        2.87515       -1.79610
C          4.21548        1.73455       -1.63080
C          3.63038        4.34517       -1.92903
H          2.50400        2.65644       -2.67138
H          2.53279        2.89067       -0.89873
H          2.71580        4.97799       -2.01783
H          4.17792        4.68314       -1.02381
C          4.48441        4.61689       -3.16514
H          4.91617        1.81486       -2.48282
H          5.49294        4.17596       -3.03491
H          4.00335        4.20480       -4.07736
H          4.59910        5.71673       -3.30241
C          2.58373        1.19700        3.83004
C          1.49864        2.02339        4.05054
C          0.78076        2.07203        2.86676
C          1.44464        1.27215        1.98723
N          2.53806        0.75075        2.57135
C          1.00184        0.97457        0.57947
N          1.77709       -0.13992        0.02034
C          0.99703       -1.36491        0.11828
H          1.25464        2.53232        4.97706
H          3.36082        0.93641        4.53739
H         -0.13287        2.60425        2.66114
H          1.02530        1.84245       -0.07670
H         -0.08029        0.72646        0.63550
C         -0.12902       -1.33269       -0.94989
C          2.09558       -2.24010       -0.15613
C          0.35066       -1.85540        1.47683
H          0.05762       -0.48815       -1.64032
H         -0.30449       -2.28390       -1.48818
H         -1.09484       -1.02206       -0.50724
H          2.99060       -2.12027        0.46505
H          1.80706       -3.14727        0.25701
H          2.32075       -2.14682       -1.23552
H          1.05071       -1.83644        2.33275
H         -0.60894       -1.36599        1.71762
H          0.04328       -2.93354        1.36588
Na         5.06454       -2.50670        0.57578
Mg         2.99496       -5.90089        2.07687
C          5.96410       -6.87852        2.45343
C          4.39941       -8.25360        1.40141
O          4.57142       -7.17766        2.30729
C          6.52959       -6.01293        1.32793
C          2.99369       -8.79000        1.57133
H          6.11881       -6.37589        3.42732
H          6.58890       -7.80608        2.52876
H          4.53808       -7.89853        0.35844
H          5.09102       -9.11119        1.59748
H          2.27479       -7.94965        1.49677
H          2.76434       -9.53719        0.78314
H          2.89682       -9.26594        2.57045
H          5.94211       -5.07821        1.25492
H          7.59025       -5.75707        1.55327
H          6.51256       -6.55007        0.35528
H          0.80973       -4.94982        3.90154
C          1.88890       -4.38002        5.65698
C          1.81084       -5.21485        4.30357
C          1.96903       -2.84720        5.55246
H          0.97564       -4.57101        6.28663
H          2.74627       -4.70936        6.27905
H          1.03015       -2.41475        5.12507
H          2.06485       -2.42720        6.58486
C          3.18000       -2.38145        4.75667
H          1.68892       -6.24570        4.70961
H          4.05724       -2.02575        4.18476
H          2.83543       -2.79416        3.77381
H          2.97538       -1.31867        4.87994
C          0.96100       -5.35936       -0.07166
C          0.49704       -4.83111       -1.26137
C          1.59587       -4.41534       -1.95579
C          2.72400       -4.65639       -1.16096
N          2.32504       -5.26607        0.03356
C          4.12174       -4.10696       -1.58510
N          4.53950       -2.60239       -1.51135
C          5.97303       -2.48488       -2.02864
H         -0.54314       -4.69357       -1.57586
H          0.29460       -5.72728        0.69614
H          1.55269       -3.90137       -2.89684
H          4.21230       -4.46899       -2.63243
H          4.79450       -4.71521       -0.97297
C          6.10074       -2.83398       -3.52975
C          6.48665       -1.04340       -1.84591
C          6.99827       -3.40202       -1.26651
H          5.39011       -2.24327       -4.13455
H          7.13638       -2.62392       -3.88971
H          5.95635       -3.91724       -3.71922
H          6.53730       -0.76021       -0.77434
H          7.52290       -0.94269       -2.25338
H          5.84584       -0.33374       -2.39649
H          7.05612       -3.17333       -0.18197
H          6.80735       -4.48598       -1.39097
H          8.02833       -3.27040       -1.66877
