95
speciation1830.ct
Na         0.74653        3.98775       -1.21283
Mg         1.71388        8.05310        0.57961
C          2.44625       10.15817        2.19097
C          2.83163        8.05406        3.17564
O          1.98866        8.82438        2.33837
C          3.81822       10.28890        1.51401
C          2.30942        6.62702        3.26523
H          1.70710       10.67870        1.54625
H          2.43381       10.69049        3.16744
H          3.86853        7.98727        2.78825
H          2.82818        8.48049        4.20381
H          2.35284        6.14055        2.26719
H          2.94360        6.04622        3.96992
H          1.26292        6.61774        3.63433
H          3.82872        9.73749        0.55055
H          4.03107       11.36080        1.31900
H          4.63388        9.91602        2.16690
H          6.31184        2.66619       -1.94481
C          6.87669        2.66035       -4.01785
C          6.01297        2.13604       -2.87242
C          8.37254        2.44122       -3.73852
H          6.59836        2.13622       -4.95026
H          6.68180        3.74658       -4.14902
H          8.66598        2.98701       -2.81473
H          8.57690        1.35816       -3.58968
C          9.22781        2.94431       -4.89949
H          6.18051        1.04935       -2.72302
H          8.98063        2.38671       -5.82793
H          9.05268        4.02817       -5.06716
H         10.30381        2.79012       -4.66973
C          1.46354        4.89313       -4.56691
C          2.45031        5.57039       -5.28699
C          2.98581        6.50285       -4.44766
C          2.28095        6.41278       -3.30073
N          1.50774        5.30942       -3.29152
C          2.42480        7.44722       -2.24488
N          1.43203        7.26194       -1.22447
C         -0.06355        7.42259       -1.44092
H          2.78652        5.40365       -6.28937
H          0.86575        4.08951       -4.98427
H          3.77900        7.20041       -4.62747
H          2.26791        8.42185       -2.72839
H          3.43523        7.39192       -1.79816
C         -0.73416        6.48206       -2.47384
C         -0.74639        7.10081       -0.09520
C         -0.43483        8.85404       -1.85884
H         -0.62079        5.41924       -2.19022
H         -1.83550        6.63301       -2.50727
H         -0.39205        6.69183       -3.50688
H         -0.42519        7.80580        0.69609
H         -1.85480        7.16488       -0.18172
H         -0.49271        6.06599        0.22835
H         -0.10056        9.59515       -1.10938
H         -0.00212        9.09400       -2.85281
H         -1.54348        8.93677       -1.95917
Na         2.18447        5.01456       -1.22787
Mg         3.92691        2.43782       -3.06554
H          2.49389        1.17885       -5.10693
C          3.76989        2.11130       -6.55958
C          3.13710        2.07972       -5.19078
C          4.50135        0.81219       -6.78104
H          2.96193        2.18844       -7.33472
H          4.41927        3.00934       -6.65749
H          5.28486        0.69189       -6.01135
H          3.77489       -0.02728       -6.68689
C          5.10383        0.78475       -8.16690
H          2.43839        2.87400       -5.31581
H          4.29812        0.87423       -8.93146
H          5.81481        1.63047       -8.28392
H          5.63299       -0.17627       -8.30395
C          3.19315       -0.23091        0.71606
C          4.61214       -0.33654        0.86195
C          5.13311        0.89490        0.67255
C          4.06208        1.68590        0.40370
N          2.92940        1.09841        0.37609
C          3.87483        2.97450       -0.11352
N          2.93691        2.76718       -1.23126
C          1.52354        2.10378       -1.20696
H          5.22611       -1.22251        0.96932
H          2.58452       -1.10212        0.64369
H          6.15701        1.22993        0.59802
H          3.41116        3.64445        0.65168
H          4.82452        3.43009       -0.43863
C          0.93837        2.63867        0.33048
C          1.03283        2.42915       -2.71504
C          1.18929        0.57530       -1.30312
H          1.17886        3.73820        0.57908
H         -0.10942        2.47291        0.54151
H          1.48761        2.44755        1.29181
H          1.93984        2.66536       -3.26514
H          0.53503        1.65366       -3.31915
H          0.34891        3.24497       -2.95894
H          1.93032        0.04700       -1.92931
H          0.98096        0.10088       -0.32804
H          0.16599        0.41299       -1.70319
