110
speciation1887.ct
Na         1.62865        0.75240       -5.17062
Mg        -1.90480       -1.10253        0.19465
C          1.30913        3.53552       -7.06068
C         -0.01223        2.86689       -5.18468
O          1.05495        2.55510       -6.03574
C          1.47364        4.97680       -6.54383
C         -1.33021        2.87045       -5.94814
H          2.25388        3.27104       -7.57491
H          0.53089        3.51003       -7.85615
H          0.20216        3.77220       -4.57624
H         -0.06142        2.04756       -4.43804
H         -1.88580        1.95780       -6.17689
H         -1.11433        2.11967       -6.72044
H         -1.45992        3.77829       -6.56259
H          2.23600        5.02447       -5.74335
H          1.78910        5.64717       -7.37590
H          0.50853        5.38022       -6.16345
H         -2.11929        0.93841       -1.74961
C         -3.97580        1.82917       -1.47144
C         -3.03918        0.57685       -1.26303
C         -5.45543        1.69839       -1.04172
H         -3.53470        2.67691       -0.90792
H         -3.98180        2.14040       -2.54838
H         -5.48124        1.30314       -0.00899
H         -5.92823        2.70971       -1.03684
C         -6.33296        0.85822       -1.98110
H         -3.51873       -0.19534       -1.89128
H         -6.50239        1.37255       -2.95137
H         -5.88347       -0.11571       -2.20830
H         -7.32752        0.69616       -1.50663
C         -0.37570       -3.75292       -0.97414
C          0.53742       -4.22729       -1.89436
C          0.88551       -3.17626       -2.65208
C          0.13581       -2.09321       -2.21508
N         -0.64851       -2.42574       -1.13682
C          0.21929       -0.79250       -2.94341
N          0.23370       -0.99092       -4.42033
C         -1.02823       -1.51884       -5.05564
H          0.91975       -5.22966       -1.98288
H         -0.76875       -4.42957       -0.24732
H          1.58014       -3.17983       -3.49780
H          1.19077       -0.33575       -2.67966
H         -0.54668       -0.08538       -2.62547
C         -2.23651       -0.63133       -4.73938
C         -0.80624       -1.58933       -6.57237
C         -1.42425       -2.96148       -4.61412
H         -2.00021        0.42042       -4.88009
H         -3.12196       -0.91002       -5.35336
H         -2.51935       -0.75690       -3.68647
H          0.06969       -2.23762       -6.79499
H         -1.69133       -2.04224       -7.07699
H         -0.63729       -0.58323       -7.00275
H         -0.62132       -3.69735       -4.82168
H         -1.72777       -3.02229       -3.55050
H         -2.33205       -3.30308       -5.16202
Na        -0.60640       -2.25805        6.25193
Mg        -1.83070        0.41381        3.07428
C          3.95294        0.87604       -3.33891
C          4.15848        2.44868       -5.11469
O          3.66401        1.17551       -4.70113
C          3.54743        1.94513       -2.30670
C          5.68959        2.49638       -5.19982
H          3.39920       -0.04858       -3.09048
H          5.02050        0.60770       -3.22189
H          3.79781        2.64602       -6.13698
H          3.76697        3.28291       -4.49559
H          6.05143        1.74914       -5.93657
H          6.01639        3.50660       -5.52945
H          6.16229        2.30055       -4.21623
H          2.47092        2.19704       -2.39876
H          3.74146        1.55621       -1.28616
H          4.16022        2.86668       -2.41049
H         -3.68627       -2.58041        2.10237
C         -5.10781       -2.84519        0.65842
C         -3.93254       -1.99867        1.21693
C         -5.89433       -2.09945       -0.40160
H         -4.71353       -3.80060        0.24821
H         -5.81554       -3.10785        1.48475
H         -6.34809       -1.19331        0.05455
H         -5.17684       -1.83364       -1.19219
C         -7.01370       -2.94040       -1.02762
H         -4.37120       -1.09038        1.67864
H         -6.59564       -3.85807       -1.49310
H         -7.78119       -3.22925       -0.27711
H         -7.51241       -2.34358       -1.82204
C         -2.11144       -4.26416        4.38269
C         -2.35049       -4.61764        3.05825
C         -1.63091       -3.68452        2.30891
C         -1.05667       -2.81168        3.17537
N         -1.31759       -3.17140        4.44826
C         -0.08557       -1.75216        2.76506
N         -0.50532       -0.52888        1.98379
C          0.72943        0.40714        2.06107
H         -2.97487       -5.42815        2.71651
H         -2.47610       -4.77985        5.25680
H         -1.64062       -3.59798        1.27764
H          0.64836       -2.32271        2.16390
H          0.40038       -1.48689        3.71563
C          2.08711       -0.32486        1.76397
C          0.70129        1.58614        1.06134
C          0.83456        1.07696        3.48114
H          2.07010       -0.80481        0.76350
H          2.94945        0.38241        1.78660
H          2.37060       -1.07585        2.53231
H         -0.05695        2.35275        1.31342
H          1.67842        2.12996        1.11517
H          0.59222        1.23939        0.01532
H         -0.02221        1.75707        3.65486
H          0.85939        0.39125        4.34514
H          1.76708        1.67552        3.57562
