53
speciation940.ct
Na         1.32350        0.72296        0.06903
C          6.38459       -0.89380       -2.76543
C          7.01290        0.31504       -3.01428
C          6.28613        1.29918       -2.35931
C          5.25917        0.64717       -1.72147
N          5.29491       -0.66266       -2.01500
C          4.12511        1.24983       -0.90017
N          3.38696        0.20368       -0.12658
C          3.82797        0.02405        1.28869
H          7.87186        0.47412       -3.65131
H          6.64388       -1.85027       -3.20037
H          6.45650        2.36470       -2.37491
H          3.40853        1.71318       -1.61469
H          4.49844        2.05927       -0.26196
C          3.47255        1.27897        2.12672
C          3.06192       -1.16324        1.90994
C          5.33715       -0.27133        1.39790
H          2.38329        1.48613        2.07510
H          3.73614        1.13033        3.19587
H          4.00748        2.18834        1.79559
H          3.29059       -2.11121        1.38083
H          3.34452       -1.29531        2.98052
H          1.96460       -0.99237        1.87506
H          5.59037       -1.20092        0.84701
H          5.94654        0.56345        0.99667
H          5.62582       -0.40875        2.46410
Na         1.18648       -3.02762        0.39117
Mg         3.67905       -1.23363       -1.38490
C          3.46507        0.07940       -4.19326
C          2.37037        0.35673       -4.98155
C          1.27110       -0.17293       -4.32170
C          1.76532       -0.76770       -3.17816
N          3.06865       -0.57813       -3.08218
C          1.09124       -1.59119       -2.13369
N          2.10128       -2.44529       -1.44661
C          2.51867       -3.71211       -2.12113
H          2.39589        0.88442       -5.92047
H          4.48615        0.36088       -4.41508
H          0.24873       -0.13632       -4.66107
H          0.25050       -2.16531       -2.55338
H          0.65729       -0.88284       -1.40365
C          3.29491       -3.47520       -3.43303
C          3.45741       -4.44303       -1.14621
C          1.30913       -4.62720       -2.41278
H          4.20482       -2.86868       -3.24814
H          3.62871       -4.44188       -3.86672
H          2.66528       -2.98268       -4.19970
H          2.93247       -4.67126       -0.19382
H          3.81906       -5.39933       -1.58241
H          4.33871       -3.80754       -0.91060
H          0.74188       -4.84216       -1.48307
H          0.62367       -4.18190       -3.16115
H          1.65489       -5.59067       -2.84611
