110
speciation2186.ct
Na         3.67870       -6.49918        0.56249
Mg        -1.87327       -0.20654        5.00593
C          4.71183       -8.69414       -1.11393
C          6.33815       -7.04727       -1.43432
O          4.95736       -7.29715       -1.20122
C          5.39521       -9.38278        0.08283
C          6.62894       -5.55943       -1.54228
H          3.61681       -8.81777       -0.97798
H          4.96165       -9.20831       -2.06794
H          6.99720       -7.43801       -0.63297
H          6.62188       -7.50119       -2.41157
H          6.52061       -5.07355       -0.55039
H          7.67995       -5.42580       -1.88417
H          5.95275       -5.07806       -2.27739
H          5.14913       -8.85588        1.02908
H          5.04938      -10.43431        0.15664
H          6.49792       -9.42795       -0.03509
H         -3.34984        2.01310        5.71657
C         -1.51275        3.13067        5.93168
C         -2.29698        1.79572        5.99508
C         -1.46322        3.74428        4.53010
H         -1.99890        3.86546        6.61736
H         -0.47632        3.00061        6.30479
H         -0.98654        3.02669        3.83367
H         -2.49646        3.95699        4.18081
C         -0.65824        5.04777        4.51088
H         -2.30940        1.49499        7.06489
H         -1.12234        5.81248        5.17112
H          0.38623        4.86892        4.84881
H         -0.62335        5.45329        3.47682
C          4.16724       -1.47712        2.66086
C          5.03586       -2.33987        1.97402
C          4.29958       -3.48450        1.73814
C          3.06387       -3.29257        2.29158
N          2.96062       -2.02716        2.83232
C          1.94048       -4.27066        2.26502
N          2.37248       -5.68401        2.36422
C          1.24172       -6.65405        2.45917
H          6.03701       -2.15607        1.67024
H          4.45386       -0.48843        3.00994
H          4.67048       -4.36863        1.22464
H          1.38226       -4.08877        1.32467
H          1.33004       -4.02424        3.13764
C          0.29137       -6.54267        1.24313
C          1.81533       -8.08046        2.45809
C          0.44447       -6.47343        3.77142
H          0.84664       -6.70723        0.29521
H         -0.52594       -7.29280        1.31111
H         -0.19814       -5.55854        1.18837
H          2.50245       -8.23299        3.31769
H          0.99318       -8.82718        2.53266
H          2.37003       -8.28267        1.51750
H          1.11288       -6.57421        4.65290
H         -0.05874       -5.49771        3.82501
H         -0.35947       -7.23709        3.85029
Na         3.56166       -5.86007        4.13030
Mg         1.38509       -0.99728        3.69690
C         -4.70632       -1.12329        4.37449
C         -3.47962       -0.36961        2.57559
O         -3.55038       -0.40788        3.98852
C         -4.91085       -1.12812        5.87440
C         -2.31416        0.48749        2.12995
H         -5.61364       -0.61584        3.95570
H         -4.69214       -2.18628        4.01130
H         -3.37472       -1.39038        2.14521
H         -4.39466        0.11238        2.16011
H         -1.35825        0.04773        2.46854
H         -2.31342        0.55593        1.02071
H         -2.41826        1.50328        2.55882
H         -4.88853       -0.08934        6.26109
H         -5.91153       -1.56562        6.10562
H         -4.13338       -1.74227        6.36954
H          0.85144        1.69553        3.33785
C          2.43857        1.49374        1.88867
C          1.80809        1.15044        3.23868
C          1.49597        1.21566        0.71033
H          2.70784        2.57053        1.84692
H          3.39169        0.93963        1.80673
H          0.77696        0.38513        0.90590
H          0.84797        2.10061        0.57813
C          2.29637        1.00170       -0.58088
H          2.50630        1.55316        4.00548
H          2.72758        1.97446       -0.88792
H          3.13381        0.27144       -0.46273
H          1.62964        0.62734       -1.38532
C         -2.25590       -4.01026        1.95372
C         -1.36583       -3.12713        1.38470
C         -0.66656       -2.52549        2.41286
C         -1.12188       -3.00668        3.56982
N         -2.14687       -3.95428        3.35189
C         -0.53540       -2.73239        4.92637
N         -0.10947       -1.33706        5.10943
C          0.55221       -1.12037        6.43311
H         -1.21963       -2.96808        0.32530
H         -2.92643       -4.66411        1.41269
H          0.14375       -1.82418        2.29196
H          0.32671       -3.41424        5.02201
H         -1.28929       -3.04984        5.68513
C          1.83024       -1.98028        6.60833
C          0.98316        0.33443        6.48957
C         -0.40813       -1.38509        7.61687
H          2.52332       -1.83087        5.75274
H          2.36377       -1.69416        7.54154
H          1.60623       -3.06138        6.70531
H          0.10844        0.96590        6.32816
H          1.45339        0.59700        7.46039
H          1.72055        0.52805        5.70451
H         -1.34395       -0.79977        7.50562
H         -0.66405       -2.46031        7.70806
H          0.07611       -1.09626        8.57633
