68
speciation69.ct
Na         1.00176        0.08393       -0.05434
Mg         4.03508       -0.98603        1.48686
C         -1.85114       -1.10575       -0.61798
C         -1.85121        1.18767       -0.77200
O         -1.31824        0.08393       -0.05434
C         -1.31358       -2.34674        0.08319
C         -1.31373        2.51151       -0.24390
H         -2.95624       -1.11920       -0.47555
H         -1.61279       -1.19026       -1.70366
H         -1.61340        1.12603       -1.85936
H         -2.95609        1.22049       -0.63183
H         -0.22923        2.60491       -0.45150
H         -1.84024        3.34630       -0.75815
H         -1.49526        2.60163        0.84706
H         -1.49818       -2.28982        1.17600
H         -1.84024       -3.24277       -0.31507
H         -0.22709       -2.46625       -0.10787
C          9.47692       -8.59232        1.18515
C          8.61238       -9.45778        0.45310
C          7.46900       -8.85845       -0.19905
C          7.39507       -7.53878        0.20471
N          9.04851       -7.34148        1.10881
C          5.14529       -3.26459       -0.06358
N          3.37176        0.08393       -0.05434
C          3.97422        1.45576       -0.03285
H          8.77514      -10.52632        0.46236
H         10.21593       -8.91120        1.92558
H          6.78505       -9.38346       -0.85040
H          6.03744       -2.86470       -0.59332
H          4.50004       -3.68561       -0.86084
C          4.80968        1.69376       -1.29206
C          2.80550        2.46594        0.00611
C          4.82388        1.80350        1.20403
H          4.18387        1.57799       -2.20041
H          5.23668        2.72199       -1.28249
H          5.64674        0.96495       -1.33241
H          2.16673        2.28649        0.90055
H          3.18270        3.51293        0.07654
H          2.17750        2.39912       -0.90306
H          4.31033        1.50506        2.13191
H          5.86215        1.47032        1.11784
H          5.00798        2.89539        1.27461
Na         8.50104       -5.04029        1.25610
C          8.66883       -1.75656        0.82774
C          7.92197       -0.61364        0.81311
C          6.73085       -0.97118        1.38947
C          6.81282       -2.24746        1.83369
N          7.95358       -2.73910        1.40338
C          5.75451       -2.99608        2.61773
N          4.69841       -2.05598        3.02806
C          5.15342       -1.20428        4.23848
H          8.18766        0.34630        0.39368
H          9.64918       -1.88452        0.38974
H          5.85655       -0.42811        1.52408
H          6.22942       -3.49736        3.46716
H          5.30167       -3.88034        2.13901
C          6.39767       -0.25627        4.05357
C          3.99787       -0.28792        4.65118
C          5.53106       -2.07126        5.47057
H          6.23866        0.56079        3.32673
H          6.63488        0.29738        4.98559
H          7.33890       -0.80960        3.84175
H          3.12759       -0.87705        4.99172
H          4.31440        0.39220        5.47707
H          3.68341        0.34335        3.80487
H          4.69841       -2.73351        5.76717
H          6.45281       -2.66930        5.31683
H          5.79387       -1.41872        6.33380
