95
speciation1447.ct
Na         1.01861        0.00745       -0.09797
Mg         4.18292        5.18560       -4.74906
C         -1.76457       -0.95581        0.84439
C         -1.82367       -0.25402       -1.40099
O         -1.30139        0.00745       -0.09797
C         -1.39010       -2.42061        0.53843
C         -1.29537        0.72632       -2.45813
H         -1.30075       -0.69570        1.81742
H         -2.86418       -0.86800        0.99088
H         -1.55866       -1.26711       -1.77079
H         -2.92797       -0.13662       -1.37576
H         -0.22180        0.55001       -2.68551
H         -1.85321        0.57287       -3.41102
H         -1.44029        1.77926       -2.14258
H         -0.30632       -2.51236        0.31707
H         -1.63000       -3.05897        1.41617
H         -1.98219       -2.83066       -0.30715
H          4.34565        8.35568       -4.19424
C          6.37626        8.23102       -4.79417
C          5.16263        7.59979       -4.22275
C          7.45264        7.16024       -4.76280
H          6.13593        8.56532       -5.81839
H          6.66495        9.11933       -4.16710
H          7.64160        6.80293       -3.72384
H          7.09522        6.30393       -5.37553
C          8.74341        7.70255       -5.30349
H          5.51937        7.49807       -3.16910
H          8.56671        8.12685       -6.31269
H          9.11679        8.49009       -4.61448
H          9.47122        6.86946       -5.35402
C          1.73638        4.02573       -5.91404
C          2.74570        3.87598       -6.76266
C          3.52789        2.78793       -6.17985
C          2.94392        2.51550       -4.66355
N          2.18871        3.70933       -4.65856
C          3.20405        1.13962       -2.19230
N          3.38861        0.00745       -0.09797
C          3.90973       -1.28265       -0.75139
H          2.85125        4.49070       -7.75063
H          1.02818        4.87821       -6.25765
H          4.25377        2.67733       -7.01852
H          4.21626        0.91702       -2.59367
H          2.14290        1.30279       -2.05198
C          5.37768       -1.19325       -1.32785
C          3.92408       -2.48451        0.20301
C          2.98177       -1.69550       -1.94317
H          6.14271       -0.94594       -0.56490
H          5.67570       -2.16252       -1.79538
H          5.53826       -0.54323       -2.18887
H          2.91130       -2.70465        0.58578
H          4.26907       -3.38997       -0.36261
H          4.64374       -2.34795        1.03302
H          1.94139       -1.84097       -1.59576
H          2.92750       -1.01490       -2.80223
H          3.35169       -2.60920       -2.44694
Na         4.17860        2.09178       -0.90319
Mg         5.54388        5.30510       -0.17397
H          6.95209        7.13512        1.06409
C          6.63226        5.56653        2.52099
C          6.13362        6.46246        1.39903
C          7.82313        4.73460        2.03528
H          6.94353        6.20056        3.38021
H          5.80656        4.89721        2.84390
H          7.51906        4.11345        1.16394
H          8.64473        5.41453        1.71813
C          8.34054        3.81998        3.13965
H          5.27734        7.08169        1.73950
H          8.64584        4.41932        4.02393
H          7.55077        3.09886        3.43852
H          9.22117        3.25184        2.77257
C          5.99682        2.32615       -5.60636
C          6.19619        1.26372       -4.83413
C          6.37220        1.76014       -3.59756
C          6.07726        3.10872       -3.63975
N          5.66449        3.44862       -4.84738
C          6.16062        4.05427       -2.51898
N          4.96859        4.17611       -1.70842
C          3.64240        4.86356       -1.72361
H          6.16294        0.24576       -5.22498
H          5.86695        1.95478       -6.60605
H          6.61369        1.17694       -2.75431
H          6.61294        5.01366       -2.80758
H          6.91019        3.56352       -1.85604
C          2.82843        4.20150       -2.52668
C          2.86114        4.75545       -0.46365
C          3.62585        6.26704       -2.23163
H          2.38795        3.23604       -2.42562
H          1.87815        4.73434       -2.77835
H          3.63120        4.14813       -3.30283
H          3.43008        5.30395        0.26871
H          1.84377        5.22035       -0.63933
H          2.69935        3.67565       -0.20965
H          4.30195        6.85589       -1.62000
H          3.87288        6.16091       -3.25240
H          2.61189        6.70900       -2.38883
