83
speciation447.ct
Na         3.54091       -0.83605        2.48398
Mg         4.18649        2.65254       -2.70842
C          5.53695       -0.05427        4.73419
C          4.87180       -2.30159        4.98386
O          4.48767       -0.99684        4.59589
C          6.75529       -0.32987        3.84198
C          3.70125       -3.25322        4.77969
H          5.12176        0.93106        4.43443
H          5.83822        0.04905        5.79975
H          5.71419       -2.69542        4.37979
H          5.12811       -2.31053        6.06697
H          3.44587       -3.31490        3.70014
H          3.97807       -4.26808        5.13765
H          2.81279       -2.90247        5.34552
H          6.44048       -0.45111        2.78426
H          7.46337        0.52205        3.91232
H          7.30694       -1.23349        4.17319
C          2.21994       -1.70361       -0.45891
C          1.97592       -1.25810       -1.74177
C          2.20430        0.10388       -1.74031
C          2.57408        0.43371       -0.45201
N          2.57375       -0.67179        0.32654
C          3.00171        1.77578        0.07220
N          3.11034        2.84640       -0.95438
C          3.43209        4.18511       -0.39256
H          1.71010       -1.86993       -2.59389
H          2.20275       -2.73527       -0.13236
H          2.14787        0.76258       -2.58866
H          2.24895        2.04016        0.83870
H          3.96808        1.63282        0.58152
C          4.74311        4.17184        0.42303
C          3.60225        5.14187       -1.58196
C          2.30014        4.72143        0.50829
H          5.56430        3.78137       -0.18660
H          5.01331        5.19619        0.75358
H          4.66115        3.55268        1.33938
H          2.66015        5.20377       -2.16885
H          3.86764        6.16397       -1.23233
H          4.40903        4.78895       -2.25761
H          1.33603        4.75099       -0.04170
H          2.17078        4.11190        1.42586
H          2.54174        5.75100        0.85371
Na         4.52916        5.32504       -8.27856
C          6.19329        0.84666       -2.72253
C          7.05339        3.04779       -2.35213
O          6.04691        2.23569       -2.95045
C          6.33400        0.45163       -1.25290
C          8.43317        2.84918       -2.98757
H          5.25880        0.37964       -3.09861
H          7.01257        0.42468       -3.34110
H          6.77075        4.11134       -2.50008
H          7.14430        2.89060       -1.26443
H          8.40348        3.05275       -4.07645
H          9.16004        3.54171       -2.50973
H          8.79855        1.81511       -2.82537
H          5.53265        0.92887       -0.67387
H          6.25119       -0.64773       -1.14807
H          7.31507        0.75971       -0.83731
C          2.21162        2.40937       -5.00348
C          2.03943        2.60886       -6.35959
C          3.19759        3.15484       -6.82735
C          4.03948        3.28411       -5.73744
N          3.44292        2.81279       -4.60968
C          5.42621        3.84142       -5.80834
N          5.38537        5.22650       -6.31821
C          6.69544        5.91702       -6.41984
H          1.16064        2.36597       -6.95064
H          1.47204        1.98015       -4.35249
H          3.40822        3.42702       -7.85609
H          5.85705        3.82202       -4.79818
H          6.00863        3.19176       -6.48671
C          7.65968        5.16501       -7.36350
C          6.43105        7.31282       -7.00840
C          7.34286        6.09855       -5.03430
H          7.19778        5.03025       -8.36485
H          8.60535        5.73537       -7.48841
H          7.93664        4.16753       -6.96216
H          5.73972        7.88466       -6.35365
H          7.37947        7.88608       -7.10080
H          5.97126        7.23492       -8.01634
H          6.65131        6.63475       -4.34874
H          7.60746        5.12919       -4.57984
H          8.28473        6.68123       -5.11692
