68
speciation151.ct
Na         6.30130        0.54274       -0.04850
Mg         0.84503        1.65834       -1.66957
C         -0.22046        2.88095        0.91420
C         -1.82387        1.68209       -0.25934
O         -0.58191        2.33122       -0.35654
C         -0.37181        2.00172        2.18326
C         -2.99784        2.65352       -0.21900
H          0.82994        3.10723        0.87969
H         -0.75092        3.84568        1.06097
H         -1.92785        1.12254       -1.12888
H         -1.86558        0.88436        0.50724
H         -2.95029        3.33953       -1.09162
H         -3.94797        2.08092       -0.26160
H         -2.98544        3.24436        0.71885
H          0.23048        1.07541        2.12503
H         -0.00829        2.57508        3.06083
H         -1.42593        1.74303        2.40135
C          3.76885       -1.24819        0.01463
C          2.39368       -1.24995        0.09128
C          1.99777        0.06920        0.12691
C          3.15115        0.82287        0.08629
N          4.22941        0.01487        0.00661
C          3.25867        2.31073        0.22293
N          2.51722        3.11353       -0.79589
C          2.83500        4.62549       -0.56398
H          1.74912       -2.11708        0.13310
H          4.40359       -2.12284       -0.00977
H          0.98809        0.41733        0.20129
H          2.90086        2.53478        1.24229
H          4.34158        2.51887        0.18218
C          4.35032        4.91918       -0.76292
C          2.10893        5.65219       -1.47989
C          2.44781        5.13819        0.85907
H          4.68701        4.54818       -1.75351
H          4.55334        6.01263       -0.72181
H          4.98844        4.48942        0.03200
H          1.00586        5.53935       -1.45404
H          2.28703        6.69606       -1.14072
H          2.54946        5.73966       -2.48147
H          1.34874        5.14702        1.01079
H          2.95090        4.60734        1.68423
H          2.75021        6.20204        0.98333
Na         3.15395        2.22574       -2.53514
C         -1.92386        0.13460       -3.27027
C         -2.03956       -0.48030       -4.49659
C         -0.78523       -0.51324       -5.03113
C          0.03660        0.07859       -4.09999
N         -0.62580        0.53145       -3.01415
C          1.43975        0.39922       -4.22905
N          1.54939        1.75468       -3.70258
C          1.05079        2.86893       -4.54554
H         -2.95630       -0.82061       -4.96297
H         -2.81340        0.31150       -2.68422
H         -0.51124       -0.87767       -6.01384
H          1.82488        0.27931       -5.26495
H          2.00775       -0.27781       -3.56151
C         -0.47485        2.88518       -4.79369
C          1.35727        4.06037       -3.74084
C          1.80620        2.97889       -5.88728
H         -1.03726        2.82743       -3.83693
H         -0.77708        3.84001       -5.27479
H         -0.79431        2.08286       -5.48243
H          2.45954        4.05589       -3.60457
H          1.02981        5.01058       -4.21048
H          0.83027        3.90554       -2.77510
H          2.90303        3.04670       -5.72135
H          1.59319        2.11215       -6.54262
H          1.47889        3.89506       -6.42693
