96
speciation1598.ct
Na         1.05399        0.04786       -0.06925
Mg         4.90338        2.70691       -1.51533
C          7.58420        4.21333       -2.09899
C          7.44160        1.84732       -2.30358
O          6.96472        3.00452       -1.61795
C          7.29969        4.63590       -3.56059
C          8.92308        1.42875       -2.10468
H          7.19346        5.03012       -1.46871
H          8.68269        4.25553       -1.89389
H          6.84561        0.97979       -1.94440
H          7.23981        1.95722       -3.38158
H          9.16285        0.68275       -2.89640
H          9.11831        0.90350       -1.14156
H          9.64493        2.25806       -2.23828
H          6.30183        4.30801       -3.89696
H          8.10154        4.39270       -4.30051
H          7.30080        5.74066       -3.58967
H          2.71202        3.05963       -3.61771
C          3.58456        1.72366       -4.81289
C          3.77546        2.75462       -3.69635
C          2.96177        0.37054       -4.37032
H          2.96415        2.17136       -5.62781
H          4.59337        1.53027       -5.20728
H          3.15511       -0.35938       -5.17826
H          3.51531        0.04172       -3.46937
C          1.43657        0.26361       -4.12080
H          4.20056        3.68308       -4.14223
H          0.82494        0.22142       -5.04593
H          1.03877        1.11725       -3.56374
H          1.23146       -0.70221       -3.59089
C          3.53249        4.79068       -1.69108
C          2.58079        5.68538       -1.85126
C          1.33269        4.93092       -1.79074
C          1.54032        3.43865       -1.41682
N          3.08424        3.53465       -1.56167
C          0.07439        1.58348       -0.83915
N         -1.31601        0.04786       -0.06925
C         -1.75870        0.09600        1.32905
H          3.05666        6.70822       -2.01294
H          4.65613        5.08960       -1.64309
H          0.60186        5.67134       -2.00891
H         -0.35892        1.73844       -1.80201
H          0.73244        1.04480       -1.55293
C         -2.47092        1.41666        1.62590
C         -2.74612       -1.06792        1.53950
C         -0.58038       -0.11517        2.28208
H         -3.33924        1.55675        0.94551
H         -2.84042        1.43355        2.67406
H         -1.76794        2.25421        1.50213
H         -2.24679       -2.04087        1.33251
H         -3.11813       -1.08849        2.58739
H         -3.61840       -0.97846        0.85724
H         -0.05956       -1.06898        2.05884
H          0.13571        0.69696        2.19291
H         -0.92022       -0.12248        3.33879
Mg        -1.97934        1.65699       -1.03403
C         -1.68818        4.29163       -1.86034
C         -3.90763        3.66390       -1.51063
O         -2.62600        3.22569       -1.97457
C         -1.35368        4.76321       -0.41586
C         -5.05433        2.65038       -1.72037
H         -0.78112        3.90284       -2.33360
H         -1.96686        5.17071       -2.48493
H         -3.89637        3.94832       -0.43317
H         -4.20186        4.54584       -2.11608
H         -6.00666        3.21916       -1.81479
H         -5.21793        1.98801       -0.83979
H         -4.94372        2.05397       -2.65030
H         -1.27921        3.94325        0.30382
H         -1.98533        5.60026       -0.06654
H         -0.38246        5.23024       -0.33960
C          3.74977        4.23861        1.18875
C          2.52046        3.89128        1.75907
C          2.19046        2.65815        1.25165
C          3.26379        2.28553        0.47300
N          4.11671        3.24048        0.33617
C          3.60769        1.24295       -0.55983
N          3.42399        0.04786       -0.06925
C          4.04617       -0.16863        1.36707
H          1.85286        4.49473        2.36314
H          4.14657        5.24331        1.23061
H          1.27984        2.13454        1.37801
H          4.66807        1.16154       -0.81070
H          3.03200        1.25578       -1.51471
C          3.76939        0.83274        2.58773
C          3.48776       -1.46574        1.94658
C          5.58680       -0.18937        1.28920
H          2.68849        0.92553        2.82713
H          4.22098        0.51690        3.54663
H          4.27591        1.82241        2.50605
H          3.76272       -2.33669        1.33738
H          3.86062       -1.62579        2.98869
H          2.38010       -1.37058        2.01525
H          5.94519       -1.00006        0.63497
H          5.97047        0.78906        0.91710
H          6.03356       -0.31112        2.30299
