83
speciation516.ct
Na         2.41315        0.11412        1.10322
Mg         0.59188        1.87426       -0.50286
C          0.36321        1.25175        3.17133
C          1.56258       -0.59929        3.99088
O          1.19548        0.15857        2.84538
C          1.08848        2.33046        3.96616
C          2.35194       -1.83611        3.59271
H          0.02299        1.69633        2.21951
H         -0.56801        0.91666        3.68711
H          2.22207       -0.00687        4.65807
H          0.66177       -0.95482        4.54463
H          3.25326       -1.54593        3.01339
H          2.67286       -2.38862        4.50228
H          1.71998       -2.51560        2.99668
H          2.05284        2.57004        3.47609
H          0.45626        3.24029        4.00755
H          1.27791        1.99271        5.00552
C          5.47566        1.22020        2.25462
C          5.99384        2.50571        2.09432
C          5.05671        3.22509        1.40413
C          4.03110        2.34734        1.16890
N          4.26112        1.11607        1.65937
C          2.78502        2.65215        0.42225
N          2.54994        1.67524       -0.64721
C          3.48882        1.87255       -1.88283
H          6.94409        2.89411        2.43869
H          5.97455        0.42147        2.77886
H          5.10571        4.26120        1.08495
H          2.73149        3.69269        0.08218
H          1.95762        2.52434        1.14291
C          5.00714        1.62879       -1.57641
C          3.21450        0.95704       -3.11931
C          3.35044        3.28908       -2.48959
H          5.25338        0.60527       -1.24486
H          5.61803        1.76802       -2.49514
H          5.44726        2.34210       -0.87710
H          2.24865        1.13585       -3.61224
H          3.97024        1.12796       -3.91909
H          3.33086       -0.09955       -2.96260
H          2.34726        3.42767       -2.93936
H          3.54561        4.10577       -1.78108
H          4.09130        3.42232       -3.31097
Na         2.61621       -3.49924        1.16979
C          0.20681        4.95308       -0.39418
C         -0.62184        3.74678       -2.23238
O         -0.05204        3.66334       -0.94894
C         -1.08027        5.61768        0.10383
C         -0.55793        2.37910       -2.87100
H          0.88516        4.86299        0.47688
H          0.73162        5.62318       -1.11710
H         -1.69159        4.02103       -2.14515
H         -0.07177        4.45638       -2.89558
H         -1.04514        1.63051       -2.21923
H         -1.05770        2.39269       -3.85882
H          0.49129        2.09344       -3.00108
H         -1.56427        4.97218        0.86544
H         -0.85380        6.60667        0.55714
H         -1.78860        5.79145       -0.73255
C         -1.95302        0.90542        0.30395
C         -2.85661       -0.05069        0.67762
C         -2.16140       -1.22085        0.76599
C         -0.83712       -0.94156        0.45770
N         -0.71123        0.38595        0.12292
C          0.17650       -2.09464        0.48306
N          1.61829       -1.81540        0.27891
C          2.08097       -1.82703       -1.10885
H         -3.91564        0.08336        0.86539
H         -2.19385        1.95245        0.14157
H         -2.57149       -2.19081        1.03813
H          0.08138       -2.54766        1.49069
H         -0.17025       -2.89127       -0.20774
C          1.14875       -0.87802       -1.92902
C          3.58488       -1.49346       -0.94965
C          2.03807       -3.18411       -1.80599
H          1.08134        0.11360       -1.48246
H          1.35679       -0.80966       -3.00523
H          0.10891       -1.26212       -1.93717
H          4.06204       -2.24058       -0.28010
H          4.19473       -1.55215       -1.87028
H          3.72168       -0.54079       -0.43100
H          2.66871       -3.93060       -1.28666
H          1.01241       -3.57514       -1.92635
H          2.45372       -3.04623       -2.83406
