95
speciation1683.ct
Na         5.61210        2.93920        2.73260
Mg         1.88213        4.49853       -3.41902
C          1.56151        6.54145       -6.65221
C          3.18155        4.98931       -7.17738
O          2.27733        5.42649       -6.07595
C          0.68896        6.24152       -7.92089
C          4.28958        5.93328       -7.63408
H          0.95619        7.00149       -5.89561
H          2.25112        7.37555       -6.90923
H          3.78612        4.11843       -6.95379
H          2.64734        4.62945       -8.08279
H          4.87175        6.30079       -6.76644
H          4.98897        5.36418       -8.30035
H          3.90380        6.76827       -8.25436
H         -0.05189        5.43652       -7.74493
H          0.14971        7.15597       -8.24649
H          1.28467        5.97518       -8.82273
H          0.07229        6.68998       -2.10892
C         -0.90136        6.93227       -3.89374
C          0.38856        6.55164       -3.16790
C         -2.02952        5.97497       -3.55473
H         -1.19139        7.96438       -3.58181
H         -0.79353        6.94463       -4.97954
H         -1.73034        4.94042       -3.82081
H         -2.24457        6.02455       -2.46497
C         -3.27570        6.35175       -4.34623
H          1.13265        7.35658       -3.36981
H         -3.58440        7.39350       -4.11155
H         -3.06621        6.27575       -5.43612
H         -4.09991        5.65844       -4.08972
C          3.05776        1.30770        2.80964
C          1.98803        0.77462        2.12203
C          2.12674        1.19075        0.80798
C          3.28074        1.95890        0.74346
N          3.83847        2.01000        1.97673
C          3.91546        2.59013       -0.50888
N          3.18872        3.65976       -1.32460
C          2.89851        4.81280       -0.42438
H          1.20339        0.14664        2.54236
H          3.24851        1.14955        3.87550
H          1.46794        0.93227        0.00252
H          4.91778        2.97051       -0.22505
H          4.09483        1.68785       -1.11306
C          4.14639        5.44669        0.21081
C          2.28983        5.78735       -1.32360
C          1.81254        4.52212        0.67337
H          4.92498        5.61017       -0.56236
H          3.88198        6.42356        0.67207
H          4.54817        4.80547        1.01914
H          1.95794        6.70664       -0.79643
H          1.42294        5.19138       -1.66049
H          2.95901        6.04581       -2.17224
H          0.92602        4.01011        0.24172
H          2.16137        3.93506        1.53407
H          1.45289        5.46650        1.13529
Na         4.65748        1.16749       -5.35049
Mg         3.91101        2.45139       -2.75961
H          6.40431        1.73984       -1.77282
C          7.13042        2.74340       -3.53546
C          6.06609        1.89836       -2.81993
C          7.27727        4.14203       -2.92725
H          8.11098        2.21732       -3.46727
H          6.86111        2.83151       -4.60820
H          6.30696        4.67346       -3.00298
H          7.56629        4.06811       -1.85487
C          8.34778        4.95138       -3.66628
H          6.05359        0.89953       -3.30482
H          9.34868        4.48159       -3.54815
H          8.10716        5.01616       -4.74902
H          8.39340        5.98183       -3.25438
C         -0.30707        2.51994       -1.79825
C         -0.73954        1.21288       -1.60850
C          0.04952        0.41928       -2.38976
C          0.92727        1.25658       -3.01706
N          0.70884        2.56755       -2.70593
C          1.96681        0.72688       -3.92743
N          2.87887        1.75528       -4.28103
C          2.43364        2.86858       -5.12533
H         -1.53561        0.85041       -0.96674
H         -0.73054        3.37787       -1.32732
H          0.01752       -0.66701       -2.49957
H          1.52080        0.23326       -4.81139
H          2.56933       -0.04244       -3.39299
C          0.88649        3.40662       -5.07392
C          3.63211        3.88002       -4.66625
C          2.35554        2.25383       -6.56506
H          0.44044        4.06914       -4.31346
H          0.58189        4.02079       -5.93576
H          0.17325        2.56148       -5.15775
H          4.61258        3.56029       -5.07245
H          3.65134        4.97941       -4.63218
H          3.78146        3.96872       -3.60336
H          3.31679        1.89488       -6.95742
H          1.63894        1.40876       -6.58406
H          1.86106        2.89558       -7.31484
