96
speciation1476.ct
Na         1.62095       -0.32187       -4.67195
Mg         2.78591        4.25448        4.10349
C          4.26150        6.86144        3.80595
C          4.12097        5.51880        1.85626
O          4.11469        5.54010        3.28692
C          3.28369        7.91990        3.26268
C          5.45673        5.97627        1.23527
H          4.16233        6.80526        4.89506
H          5.30786        7.21130        3.68177
H          3.96554        4.47339        1.52314
H          3.27461        6.09469        1.43191
H          6.29133        5.32303        1.56604
H          5.39013        5.92906        0.12617
H          5.70302        7.03103        1.49102
H          2.23658        7.59532        3.38061
H          3.42156        8.87231        3.82311
H          3.48199        8.15337        2.19570
H          0.71730        6.08223        3.99732
C         -0.53733        4.35329        4.16919
C          0.74296        5.03806        3.63212
C         -1.82348        4.98081        3.58721
H         -0.55727        3.28512        3.90929
H         -0.54821        4.41968        5.27325
H         -1.90355        6.04133        3.91067
H         -1.79567        4.95010        2.47762
C         -3.06671        4.21144        4.04313
H          0.72096        5.06305        2.52060
H         -3.03625        3.16873        3.65984
H         -3.12961        4.18698        5.15125
H         -3.98302        4.69825        3.64441
C          5.84949        1.21486       -2.66651
C          5.30720        1.38157       -3.92113
C          3.95581        1.15614       -3.79304
C          3.73224        0.85284       -2.46404
N          4.89028        0.90252       -1.77111
C          2.39395        0.52936       -1.87555
N          1.82217       -0.64096       -2.56115
C          0.48853       -1.08668       -2.09532
H          5.83299        1.63095       -4.83334
H          6.89453        1.32756       -2.41553
H          3.22861        1.21069       -4.58868
H          1.75715        1.42251       -2.02047
H          2.52694        0.32952       -0.79291
C         -0.56300        0.03881       -2.22193
C          0.05191       -2.25240       -2.99855
C          0.56506       -1.60630       -0.64399
H         -0.64527        0.37405       -3.28068
H         -1.55938       -0.32573       -1.89333
H         -0.32049        0.91460       -1.58876
H          0.78144       -3.08851       -2.94158
H         -0.94770       -2.63341       -2.69710
H         -0.01721       -1.92666       -4.05988
H          1.32584       -2.41010       -0.56986
H          0.82963       -0.80059        0.07106
H         -0.41502       -2.01940       -0.32914
Mg         5.40102        0.62220        0.13169
C          2.96537        3.23834        7.16007
C          2.52654        5.53868        6.88033
O          2.93620        4.32898        6.22503
C          1.60930        2.87370        7.81540
C          3.38872        5.92027        8.11128
H          3.43067        2.38188        6.67419
H          3.71970        3.40774        7.95457
H          2.60030        6.36692        6.16550
H          1.44968        5.51553        7.15892
H          4.46803        5.87126        7.85855
H          3.19030        5.24818        8.97179
H          3.14414        6.94402        8.45865
H          0.81557        2.64462        7.08217
H          1.74418        1.97972        8.46401
H          1.23517        3.68837        8.46827
C          6.73995       -0.67831        2.33996
C          6.89394       -0.77455        3.70529
C          6.13203        0.22237        4.26490
C          5.52016        0.89594        3.22525
N          5.91177        0.34188        2.03450
C          4.64169        2.13946        3.54119
N          3.22835        2.31764        3.08781
C          2.12817        1.35529        3.38486
H          7.49948       -1.49500        4.23462
H          7.19360       -1.32974        1.61076
H          6.03283        0.42703        5.32351
H          4.64824        2.30585        4.63964
H          5.20450        2.99528        3.11062
C          1.69324        1.52794        4.82256
C          0.97549        1.72689        2.43872
C          2.41420       -0.14196        3.15195
H          1.53459        2.60466        5.01427
H          0.75256        0.98248        5.05323
H          2.46943        1.07894        5.46463
H          1.22101        1.45014        1.39593
H          0.02494        1.22337        2.72979
H          0.82331        2.81352        2.39854
H          2.64631       -0.35793        2.09089
H          3.22114       -0.52416        3.80523
H          1.49195       -0.72223        3.40923
