68
speciation37.ct
Na         1.36743        1.58775        0.37802
Mg         5.85954        2.66462       -0.28021
C          1.34396        1.98302        3.81332
C          0.01278        3.48463        2.60893
O          1.15595        2.62747        2.53225
C          0.21767        1.00938        4.22939
C          0.12417        4.62234        3.65781
H          2.32863        1.49974        3.83672
H          1.55965        2.68835        4.63568
H         -0.12883        3.96404        1.62308
H         -0.91237        2.89976        2.79817
H          0.97295        5.28829        3.42992
H         -0.80526        5.22639        3.66403
H          0.23302        4.26829        4.70371
H         -0.04793        0.31267        3.40569
H          0.53513        0.41105        5.11006
H         -0.69534        1.56032        4.53680
C         -1.67178        0.79055        0.03473
C         -2.29793       -0.42771       -0.17496
C         -1.31193       -1.38548       -0.20449
C         -0.11660       -0.72800       -0.01553
N         -0.34975        0.59510        0.13393
C          1.26152       -1.37628       -0.02645
N          2.37838       -0.39401        0.02476
C          3.38328       -0.58497        1.08412
H         -3.36362       -0.58688       -0.30814
H         -2.15629        1.75359        0.09183
H         -1.44349       -2.45356       -0.36276
H          1.36030       -1.93423       -0.98225
H          1.30043       -2.13344        0.77652
C          4.16871       -1.90237        0.97569
C          4.36089        0.59182        0.97185
C          2.68553       -0.54442        2.42316
H          4.70845       -1.97482        0.01147
H          4.91914       -1.95335        1.79800
H          3.49759       -2.77813        1.08288
H          3.79116        1.53447        1.04624
H          5.12213        0.57940        1.78150
H          4.88830        0.57193       -0.00768
H          1.96485        0.25629        2.28608
H          2.07977       -1.43969        2.65092
H          3.40355       -0.39099        3.25696
Na         3.51446       -0.95194       -1.71001
C          4.39818        4.41945        1.59522
C          3.22953        5.13627        1.72511
C          2.50686        4.93436        0.56655
C          3.26943        4.10225       -0.21393
N          4.42772        3.79674        0.40552
C          2.92725        3.59777       -1.57346
N          1.65428        2.85391       -1.56817
C          1.30257        2.33252       -2.94181
H          2.94751        5.74063        2.57341
H          5.18715        4.35541        2.33209
H          1.53700        5.34772        0.32190
H          3.76688        2.95256       -1.89885
H          2.86364        4.48555       -2.23249
C          2.37008        1.37373       -3.51847
C         -0.01389        1.55160       -2.86159
C          1.08486        3.47755       -3.96746
H          2.53317        0.54051       -2.82286
H          2.03401        0.94413       -4.48936
H          3.33549        1.87735       -3.72497
H         -0.82497        2.18541       -2.44604
H         -0.32854        1.19071       -3.86618
H          0.12694        0.65035       -2.24802
H          0.30632        4.18195       -3.61477
H          2.01990        4.03648       -4.17796
H          0.75878        3.05999       -4.94600
