96
speciation1765.ct
Na         0.68789        1.68873       -0.53292
Mg         3.60025       -0.57749       -1.65949
C          4.69938        1.37794       -1.91652
C          6.58678        0.54514       -2.79220
O          5.39634        0.18781       -2.06169
C          3.96444        1.81242       -3.17889
C          7.48462       -0.61368       -3.19692
H          3.88837        1.16780       -1.23613
H          5.23228        2.09231       -1.27738
H          6.36225        1.10389       -3.72924
H          7.21655        1.19692       -2.14052
H          6.99838       -1.25122       -3.95796
H          8.39703       -0.17962       -3.67256
H          7.80310       -1.20445       -2.31705
H          3.69399        0.97440       -3.84242
H          3.06193        2.22796       -2.78925
H          4.43619        2.60037       -3.78804
H          5.35083        4.44242       -0.88670
C          5.54939        5.68471       -2.64725
C          5.07736        4.43439       -1.96062
C          5.21364        5.57399       -4.13890
H          5.06362        6.55430       -2.18950
H          6.65731        5.75569       -2.51288
H          5.69112        4.66666       -4.58257
H          4.11471        5.48362       -4.25770
C          5.72233        6.78843       -4.87101
H          5.73361        3.67868       -2.44287
H          5.27077        7.70778       -4.43076
H          6.83100        6.84711       -4.79080
H          5.44221        6.72327       -5.94347
C         -1.93941        0.80370        0.96993
C         -2.34608       -0.47786        1.29242
C         -1.27944       -1.32230        1.02070
C         -0.25092       -0.52248        0.56118
N         -0.68505        0.75158        0.48709
C          1.11272       -1.02570        0.04279
N          2.20724        0.00630       -0.07166
C          3.02122        0.08553        1.21683
H         -3.33659       -0.77746        1.61377
H         -2.56220        1.68780        0.96809
H         -1.27212       -2.39971        1.10412
H          0.88995       -1.39286       -0.96409
H          1.40786       -1.89649        0.62856
C          3.87054       -1.20278        1.39641
C          4.03616        1.25515        1.22686
C          2.13444        0.31086        2.46543
H          4.50822       -1.36175        0.49692
H          4.54110       -1.11777        2.27829
H          3.27397       -2.11868        1.55344
H          3.56053        2.22326        0.96518
H          4.51213        1.36522        2.22695
H          4.91607        1.04350        0.59367
H          1.57096        1.26305        2.37263
H          1.43459       -0.52517        2.64382
H          2.77103        0.38004        3.37908
Mg         2.91563        3.94247       -2.14135
C          2.05135       -1.39842       -3.73059
C          4.21258       -2.44907       -3.60743
O          3.41208       -1.31467       -3.36077
C          1.34106       -2.68849       -3.29605
C          4.48099       -2.63402       -5.09964
H          1.55515       -0.56366       -3.20374
H          1.91877       -1.20271       -4.81067
H          5.18669       -2.28046       -3.11215
H          3.80348       -3.36834       -3.13984
H          4.94390       -1.71702       -5.52262
H          5.17478       -3.48820       -5.24561
H          3.53688       -2.84842       -5.64102
H          1.57814       -2.92304       -2.24640
H          0.24729       -2.54877       -3.41699
H          1.66631       -3.53897       -3.92665
C         -1.77761        0.10504       -2.17120
C         -2.04783       -0.09024       -3.49809
C         -1.15266        0.68360       -4.20282
C         -0.38600        1.34162       -3.24155
N         -0.70529        0.93608       -2.02714
C          0.64852        2.36831       -3.49982
N          0.99147        3.14835       -2.24037
C          0.13278        4.34770       -2.00943
H         -2.82482       -0.73079       -3.89410
H         -2.30995       -0.36356       -1.36694
H         -1.06347        0.73446       -5.27553
H          0.31720        3.03178       -4.30669
H          1.47723        1.81647       -3.95046
C         -1.34808        3.99641       -1.77910
C          0.65585        5.05064       -0.74014
C          0.22293        5.37762       -3.16816
H         -1.46476        3.29553       -0.91049
H         -1.94107        4.89603       -1.55624
H         -1.80664        3.52419       -2.67879
H          1.70802        5.37651       -0.89191
H          0.04920        5.94645       -0.50211
H          0.62290        4.35882        0.12562
H          1.28097        5.65450       -3.36718
H         -0.23776        5.02156       -4.10865
H         -0.33808        6.30639       -2.91045
