95
speciation1281.ct
Na         0.79450       -0.11607       -0.07734
Mg         8.45635       -4.44349       -0.37695
C         -1.87943        0.97049        0.44617
C         -1.85010       -1.40987        0.27055
O         -1.32124       -0.17539       -0.19376
C         -1.81844        0.96040        1.97842
C         -3.34691       -1.59985       -0.04293
H         -1.29697        1.84501        0.09315
H         -2.91919        1.15296        0.09868
H         -1.31331       -2.22713       -0.25586
H         -1.65540       -1.55899        1.35015
H         -3.52867       -1.55617       -1.13692
H         -3.67784       -2.59583        0.32879
H         -3.97568       -0.83859        0.46203
H         -0.78649        0.77508        2.32409
H         -2.15272        1.94423        2.36561
H         -2.48879        0.19079        2.41154
H          9.56693       -3.04317        1.70660
C          8.62014       -4.53663        2.96707
C          8.66943       -3.69432        1.67785
C          9.85370       -5.42533        3.14244
H          8.56956       -3.84033        3.83649
H          7.69714       -5.15671        2.97441
H          9.91445       -6.14130        2.29749
H         10.76729       -4.79134        3.15105
C          9.79851       -6.20362        4.46146
H          7.79129       -3.01609        1.71832
H          9.77793       -5.50874        5.32978
H          8.89670       -6.85105        4.49854
H         10.69921       -6.84719        4.55388
C          4.46070       -0.59972       -3.69131
C          4.79388        0.67778       -4.11169
C          4.50790        1.52419       -3.06184
C          3.99939        0.72725       -2.05855
N          4.01146       -0.56272       -2.42108
C          3.51720        1.18463       -0.71957
N          3.01505        0.04947        0.07423
C          3.28273        0.11437        1.53970
H          5.21137        0.96270       -5.06824
H          4.57593       -1.50189       -4.27719
H          4.66035        2.59592       -3.02894
H          2.70936        1.94176       -0.84406
H          4.38824        1.69925       -0.27538
C          2.40516        1.20553        2.16091
C          2.92518       -1.25112        2.12778
C          4.77587        0.38302        1.89315
H          1.34673        1.00133        1.93110
H          2.52771        1.23172        3.26583
H          2.65831        2.20524        1.75252
H          3.59609       -2.03199        1.70926
H          3.05891       -1.25417        3.23141
H          1.87585       -1.52841        1.89464
H          5.44288       -0.37529        1.43005
H          5.13250        1.39543        1.62090
H          4.90985        0.33673        2.99713
Na         3.42324       -1.84460       -0.84378
Mg         6.35811       -6.99597       -0.02320
H         11.18787       -3.84719       -0.59363
C         10.97913       -4.55404       -2.61669
C         10.59739       -4.62693       -1.11990
C         10.59101       -3.22712       -3.28250
H         12.07378       -4.71399       -2.74923
H         10.45242       -5.37604       -3.14319
H          9.50924       -3.08831       -3.12301
H         11.12106       -2.35348       -2.83495
C         10.85524       -3.27284       -4.79606
H         10.95377       -5.61339       -0.75062
H         11.89955       -2.97511       -5.03238
H         10.68382       -4.29246       -5.20341
H         10.15539       -2.58969       -5.32333
C          2.07784       -4.55990        0.09446
C          2.37331       -5.81276        0.59759
C          3.74742       -5.89441        0.67803
C          4.23071       -4.68443        0.21679
N          3.22088       -3.87023       -0.13732
C          5.67860       -4.28606        0.13508
N          6.53105       -5.17051       -0.69394
C          6.25640       -5.20837       -2.15772
H          1.66409       -6.57878        0.88326
H          1.08353       -4.16965       -0.07967
H          4.32401       -6.73337        1.03939
H          5.77259       -3.23168       -0.19614
H          6.05012       -4.33799        1.17391
C          6.42511       -3.80993       -2.77781
C          7.27266       -6.17737       -2.77969
C          4.85209       -5.75789       -2.51644
H          5.62706       -3.12351       -2.42672
H          6.35650       -3.85480       -3.88558
H          7.40216       -3.38037       -2.48891
H          7.12103       -7.20336       -2.37643
H          7.15171       -6.22356       -3.88475
H          8.30546       -5.86374       -2.54682
H          4.67932       -6.74783       -2.04165
H          4.03762       -5.06835       -2.23568
H          4.75161       -5.87973       -3.61683
