96
speciation1705.ct
Na         0.04034       -0.09043       -3.52123
Mg         2.27196        4.98701       -1.33265
C          3.64274        7.74190       -1.32441
C          5.11437        6.40920       -2.56455
O          3.98895        6.38324       -1.62507
C          3.20532        8.66263       -2.47643
C          6.38508        7.20264       -2.17266
H          2.77530        7.75272       -0.65938
H          4.47215        8.21782       -0.75969
H          5.65094        5.46535       -2.63278
H          4.77216        6.66161       -3.58651
H          6.87701        6.74734       -1.28193
H          7.11489        7.12711       -3.01452
H          6.22797        8.28218       -2.00815
H          2.12718        8.59389       -2.60409
H          3.30769        9.72135       -2.18405
H          3.72361        8.50792       -3.44070
H          4.93928        1.01195        2.21535
C          5.01948        2.92750        3.18628
C          5.16865        2.06320        1.94083
C          5.96146        2.53883        4.32792
H          5.20186        3.98749        2.90722
H          3.99046        2.78335        3.56900
H          5.78670        1.47942        4.61891
H          7.02069        2.65522        4.01219
C          5.68877        3.43563        5.53743
H          6.21180        2.10062        1.56192
H          5.86684        4.50063        5.27376
H          4.63246        3.32438        5.86796
H          6.35354        3.15890        6.38097
C          1.61998       -1.59136       -1.35792
C          2.40735       -1.48757       -0.23198
C          2.50050       -0.14286        0.06454
C          1.77414        0.52717       -0.90529
N          1.22934       -0.36634       -1.76166
C          1.61055        2.02129       -1.02843
N          2.85353        2.80167       -1.27410
C          3.61054        2.34010       -2.49498
H          2.86260       -2.30504        0.31540
H          1.36297       -2.51831       -1.85737
H          3.04101        0.29535        0.88410
H          0.91027        2.17317       -1.84785
H          1.13271        2.38215       -0.10731
C          2.79049        2.45768       -3.81037
C          4.75149        3.27300       -2.61146
C          4.24447        0.92864       -2.40324
H          2.44308        3.49594       -3.97258
H          3.42673        2.20303       -4.68706
H          1.91511        1.78286       -3.82532
H          5.37713        3.27812       -1.68829
H          5.39444        3.08388       -3.50016
H          4.18987        4.19653       -2.74581
H          4.77196        0.78808       -1.43648
H          3.52361        0.11750       -2.57866
H          4.98556        0.78077       -3.22079
Mg         3.99673        2.43702        0.31342
C          0.87881        6.51692       -3.48558
C         -0.18354        4.46181       -3.35855
O          1.00617        5.18598       -3.02149
C         -0.07309        7.37442       -2.63811
C         -0.45619        4.32177       -4.88683
H          1.90806        6.85771       -3.60333
H          0.54739        6.62431       -4.53422
H         -0.12061        3.43817       -3.00145
H         -1.07363        4.85608       -2.82830
H         -0.36096        3.26854       -5.21704
H         -1.48836        4.67066       -5.11430
H          0.24434        4.87287       -5.54536
H          0.21994        7.35116       -1.57089
H         -0.06874        8.42058       -3.01252
H         -1.12121        7.02685       -2.74366
C         -3.19489        5.56864        2.72496
C         -3.11777        6.62834        1.84766
C         -1.94865        6.46986        1.11243
C         -1.32462        5.36532        1.49864
N         -2.06234        4.75247        2.56935
C         -0.07627        4.71357        0.87587
N          1.16321        5.54355        0.63890
C          1.89546        5.90888        1.92150
H         -3.87239        7.40755        1.74316
H         -4.02746        5.39088        3.41714
H         -1.63066        7.11219        0.30665
H         -0.42034        4.35335       -0.11099
H          0.15134        3.79273        1.44763
C          2.20026        4.70557        2.83585
C          3.27437        6.51295        1.59663
C          1.12485        6.97129        2.74256
H          2.87509        4.04163        2.27864
H          2.70536        5.05970        3.76992
H          1.32544        4.13533        3.18879
H          3.19332        7.56594        1.28904
H          3.92464        6.57917        2.49609
H          3.80423        5.87635        0.85614
H          0.89072        7.85367        2.10724
H          0.19095        6.57726        3.17982
H          1.74530        7.32994        3.59603
