96
speciation1710.ct
Na         0.91454        0.00324        0.05183
Mg        -1.04796       -2.39593       -4.56065
C         -1.50536       -5.05399       -4.22632
C         -0.03846       -4.16241       -2.57237
O         -0.48186       -4.11147       -3.92408
C         -2.72394       -5.03359       -3.29783
C          0.76398       -5.43753       -2.26457
H         -1.89338       -4.80133       -5.22927
H         -1.08295       -6.07637       -4.32229
H          0.64150       -3.30455       -2.39290
H         -0.86899       -4.03588       -1.85242
H          1.69913       -5.46422       -2.86276
H          1.03170       -5.46016       -1.18703
H          0.17821       -6.35628       -2.47472
H         -3.13661       -4.00449       -3.23756
H         -3.50070       -5.71391       -3.70361
H         -2.47402       -5.40516       -2.28275
H         -1.97070        4.39861       -0.78732
C         -3.41049        4.41748        0.85465
C         -2.79878        3.77765       -0.38427
C         -2.39585        4.55050        1.99011
H         -3.79002        5.42598        0.57798
H         -4.26691        3.79321        1.18968
H         -2.01834        3.54738        2.27688
H         -1.53682        5.17250        1.65741
C         -3.04259        5.20731        3.20761
H         -3.58709        3.70354       -1.16292
H         -3.40980        6.22325        2.94628
H         -3.89764        4.59553        3.56770
H         -2.29897        5.29757        4.02638
C         -0.43944        0.40774       -4.37743
C         -0.34099        1.57008       -3.65024
C         -0.72148        1.26120       -2.37178
C         -1.07099       -0.07931       -2.36808
N         -0.88551       -0.61252       -3.61081
C         -1.57262       -0.83613       -1.16011
N         -1.45546        0.00324        0.05183
C         -1.76137       -0.63670        1.36131
H         -0.02191        2.53926       -4.00891
H         -0.19934        0.31696       -5.42874
H         -0.74116        1.96431       -1.55288
H         -0.93447       -1.73126       -1.05014
H         -2.62232       -1.14253       -1.34254
C         -0.74498       -1.75590        1.68558
C         -1.63987        0.44223        2.45218
C         -3.18628       -1.22303        1.41978
H          0.28610       -1.35630        1.69261
H         -0.94157       -2.18265        2.69359
H         -0.79798       -2.59353        0.96282
H         -2.40617        1.23047        2.29924
H         -1.79801        0.00534        3.46353
H         -0.63452        0.91526        2.43257
H         -3.94913       -0.44070        1.22604
H         -3.31277       -2.04960        0.69203
H         -3.37640       -1.64860        2.43219
Mg        -2.11879        1.86703       -0.16352
C         -2.67844       -1.22724       -6.46121
C         -1.61661       -3.06563       -7.47004
O         -1.56725       -2.11101       -6.41577
C         -4.02466       -1.92237       -6.25138
C         -0.33917       -3.89248       -7.55558
H         -2.56340       -0.50728       -5.63081
H         -2.67113       -0.60980       -7.38829
H         -2.47123       -3.76292       -7.35676
H         -1.69632       -2.53234       -8.45030
H         -0.19648       -4.49679       -6.64318
H         -0.42186       -4.58845       -8.41835
H          0.54465       -3.24069       -7.70257
H         -3.97586       -2.57272       -5.35347
H         -4.81735       -1.15930       -6.10726
H         -4.30350       -2.52786       -7.13887
C          2.08646       -1.01006        4.29180
C          2.53932        0.29111        4.26056
C          3.21425        0.46843        3.06498
C          3.18265       -0.68417        2.39013
N          2.46211       -1.66608        3.10869
C          3.81958       -0.92990        1.06003
N          3.28454        0.00324        0.05183
C          3.88071       -0.10424       -1.30585
H          2.39122        1.02479        5.04226
H          1.50831       -1.46422        5.07850
H          3.71447        1.37299        2.74789
H          3.60664       -1.97703        0.76923
H          4.91075       -0.78894        1.18298
C          3.72301       -1.51948       -1.90744
C          3.13735        0.88542       -2.21624
C          5.37737        0.27960       -1.29035
H          2.65399       -1.81563       -1.94559
H          4.12814       -1.54211       -2.94379
H          4.28977       -2.27812       -1.32977
H          3.23215        1.92265       -1.83067
H          3.54509        0.85698       -3.25090
H          2.06028        0.62473       -2.26293
H          5.51522        1.29762       -0.86795
H          5.98154       -0.43731       -0.69831
H          5.79187        0.26967       -2.32210
