96
speciation1315.ct
Na         2.56607       -1.04898       -2.31838
Mg         6.70626        6.71186       -1.13076
C          0.26366       -2.59405       -3.73495
C          2.35589       -3.35147       -4.51387
O          1.60029       -2.24777       -4.05405
C          0.11955       -3.58686       -2.57576
C          3.78580       -2.91286       -4.79382
H         -0.24038       -1.65257       -3.42916
H         -0.27924       -2.95144       -4.63730
H          2.41293       -4.16394       -3.76047
H          1.92429       -3.73352       -5.46579
H          4.26905       -2.56866       -3.85449
H          4.36424       -3.77270       -5.19559
H          3.80101       -2.08951       -5.53781
H          0.68009       -3.22980       -1.68914
H         -0.95371       -3.68169       -2.30733
H          0.47437       -4.59828       -2.85897
H          7.39196        8.97847        0.01332
C          8.56178        7.44395        1.01880
C          7.26482        7.94356        0.39650
C          9.69769        7.44830       -0.00815
H          8.82926        8.10304        1.87364
H          8.40072        6.41095        1.39563
H          9.43058        6.79798       -0.86889
H          9.85962        8.48373       -0.38054
C         10.99617        6.94115        0.61268
H          6.45483        7.93714        1.15591
H         11.29269        7.58654        1.46730
H         10.87116        5.89635        0.96965
H         11.80565        6.96474       -0.14657
C          3.47290        4.51074        0.23580
C          2.27045        4.23350        0.85521
C          1.87708        3.01297        0.38906
C          2.86405        2.57081       -0.45802
N          3.82882        3.51291       -0.61247
C          2.78606        1.26842       -1.16845
N          3.55267        0.17566       -0.54531
C          3.15593       -0.43154        0.75459
H          1.72615        4.85213        1.55378
H          4.03223        5.42351        0.37171
H          0.95876        2.48219        0.64880
H          3.19191        1.43237       -2.18907
H          1.72972        0.96636       -1.31707
C          1.72811       -1.00462        0.70782
C          4.13863       -1.58635        1.01620
C          3.29078        0.53969        1.94962
H          1.64154       -1.76231       -0.09658
H          1.48033       -1.49895        1.67351
H          0.97722       -0.20712        0.53559
H          5.17927       -1.19874        1.07779
H          3.90832       -2.09673        1.97784
H          4.09355       -2.33727        0.20090
H          4.29210        1.01998        1.96704
H          2.51250        1.30776        1.96094
H          3.14474       -0.00351        2.90775
Mg         5.46172        3.66997       -1.89542
C          6.44681        2.01427       -4.09195
C          6.66388        0.95160       -1.99903
O          6.35959        2.15236       -2.68303
C          5.35836        1.12595       -4.69182
C          6.67468        1.19274       -0.49962
H          6.30565        3.01023       -4.53464
H          7.46422        1.68476       -4.40342
H          5.90373        0.17037       -2.20562
H          7.68208        0.59463       -2.27801
H          5.68101        1.54110       -0.16300
H          6.92138        0.24407        0.02258
H          7.42947        1.95715       -0.23205
H          4.36138        1.47988       -4.36114
H          5.41078        1.18382       -5.80002
H          5.49972        0.06494       -4.40366
C          9.74939        3.45369       -1.46853
C         10.44800        3.64828       -2.64272
C          9.63980        4.39043       -3.47582
C          8.49285        4.63787       -2.84065
N          8.48871        4.07182       -1.55132
C          7.37851        5.42150       -3.46070
N          6.16139        5.51034       -2.62059
C          5.05169        6.24569       -3.31616
H         11.44271        3.28290       -2.85891
H         10.11441        2.91298       -0.60920
H          9.88607        4.71281       -4.47934
H          7.15972        4.94937       -4.43010
H          7.78922        6.43096       -3.65696
C          4.54686        5.48672       -4.56727
C          3.86352        6.37962       -2.35868
C          5.46376        7.68498       -3.71425
H          4.24607        4.45158       -4.29801
H          3.66334        6.00267       -5.00317
H          5.30525        5.44405       -5.37276
H          4.16642        6.89442       -1.42258
H          3.03782        6.96368       -2.82115
H          3.44603        5.38478       -2.14544
H          5.81158        8.25133       -2.82361
H          6.25568        7.69945       -4.48838
H          4.59778        8.22789       -4.15355
