110
speciation2069.ct
Na         0.95475        0.01065       -0.08854
Mg         2.48330        3.68698       -3.15662
C         -1.99531        0.72679       -1.13712
C         -1.92789        0.42025        1.14512
O         -1.36525        0.01065       -0.08854
C         -1.45361        0.30000       -2.49332
C         -1.25128       -0.28871        2.30888
H         -3.08529        0.48926       -1.14904
H         -1.85081        1.82486       -1.02571
H         -1.82974        1.51991        1.29647
H         -3.00224        0.12564        1.17956
H         -0.18761        0.00700        2.38069
H         -1.75928       -0.00335        3.25571
H         -1.31868       -1.38935        2.18439
H         -1.59183       -0.79204       -2.64031
H         -2.01358        0.83579       -3.29151
H         -0.37777        0.55626       -2.57949
H          3.71525        5.55422       -1.53760
C          5.40697        4.37268       -2.25812
C          3.95849        4.49528       -1.76645
C          6.49138        4.88784       -1.28728
H          5.60425        3.30440       -2.48558
H          5.51686        4.95516       -3.18881
H          7.47575        4.71218       -1.77492
H          6.38450        5.97999       -1.11512
C          6.51264        4.17201        0.06022
H          3.84762        3.91207       -0.83272
H          7.40101        4.49747        0.64396
H          6.58739        3.07847       -0.09894
H          5.60505        4.41796        0.65111
C          2.69145        0.91798       -4.58420
C          2.98256       -0.41961       -4.35418
C          3.33543       -0.52811       -3.02869
C          3.25220        0.74153       -2.50243
N          2.87103        1.64706       -3.45725
C          3.54132        1.09023       -1.07194
N          3.32475        0.01065       -0.08854
C          3.49205        0.45761        1.33831
H          2.93817       -1.23409       -5.06713
H          2.36171        1.31859       -5.52545
H          3.61831       -1.43414       -2.51418
H          2.82109        1.91095       -0.86045
H          4.57609        1.50677       -1.03142
C          2.51736        1.61348        1.71292
C          3.17744       -0.73317        2.26235
C          4.92367        0.93110        1.65823
H          1.46187        1.34051        1.54107
H          2.61245        1.87123        2.78997
H          2.73002        2.55082        1.16157
H          3.92607       -1.54296        2.13096
H          3.20979       -0.41734        3.33053
H          2.16709       -1.14278        2.05636
H          5.67111        0.14143        1.45230
H          5.17556        1.83882        1.08651
H          5.00278        1.20967        2.73396
Na         4.11475       -2.21076       -0.32972
Mg         8.91589       -6.00501       -0.92428
C          1.05564        5.08258       -5.44681
C          3.42513        5.23709       -5.56513
O          2.29849        4.88103       -4.76870
C          0.79784        4.15310       -6.63707
C          3.49928        6.74008       -5.91653
H          0.22795        4.93679       -4.73038
H          0.93631        6.14540       -5.74783
H          4.32778        5.01214       -4.98046
H          3.50166        4.61733       -6.47961
H          3.46259        7.36595       -4.99987
H          4.44905        6.95305       -6.45169
H          2.68599        7.05571       -6.60315
H          0.71980        3.10791       -6.28220
H         -0.16482        4.44332       -7.11371
H          1.57379        4.22543       -7.42567
H         -0.10472        3.29289       -2.89076
C          0.12359        5.11643       -1.72769
C          0.61676        3.73714       -2.17172
C         -1.27628        5.02596       -1.09737
H          0.84472        5.54057       -0.99726
H          0.07771        5.78962       -2.60810
H         -1.98930        4.61149       -1.84363
H         -1.25697        4.35066       -0.21375
C         -1.78174        6.39840       -0.65530
H          0.69469        3.07368       -1.28484
H         -1.12672        6.81471        0.13906
H         -1.80383        7.10011       -1.51621
H         -2.81280        6.30553       -0.25136
C          9.11630       -3.04600       -0.95081
C          8.39676       -1.91000       -0.63731
C          7.17474       -2.33803       -0.15854
C          7.19842       -3.71577       -0.19863
N          8.38875       -4.14448       -0.68487
C          6.11652       -4.63916        0.23992
N          4.90474       -4.43217       -0.57090
C          3.77498       -5.34680       -0.27574
H          8.72695       -0.88379       -0.74074
H         10.12003       -3.07380       -1.34981
H          6.36698       -1.71170        0.18664
H          5.91768       -4.43837        1.31047
H          6.48746       -5.67829        0.11818
C          3.36466       -5.29260        1.21336
C          2.57495       -4.88290       -1.11906
C          4.11416       -6.80023       -0.67152
H          3.13511       -4.24854        1.51668
H          2.46186       -5.91672        1.38991
H          4.16286       -5.69122        1.87347
H          2.82367       -4.90729       -2.20142
H          1.69427       -5.54074       -0.94753
H          2.28637       -3.84376       -0.84984
H          4.40357       -6.85354       -1.74278
H          4.94044       -7.21481       -0.05988
H          3.23456       -7.46096       -0.51200
