95
speciation1799.ct
Na        -1.39736        2.93135       -0.88778
Mg        -0.96616        2.38067       -7.08983
C         -2.81121        1.31469       -8.72416
C         -0.99505        1.69072      -10.15291
O         -1.54130        1.92916       -8.85184
C         -2.73446       -0.22209       -8.71421
C          0.29412        2.43639      -10.45002
H         -3.25912        1.64988       -7.76191
H         -3.50208        1.69707       -9.50688
H         -0.73960        0.62606      -10.31116
H         -1.72510        2.03554      -10.92164
H          1.12384        2.05068       -9.82331
H          0.55404        2.23454      -11.51704
H          0.17235        3.52923      -10.32267
H         -2.16213       -0.56456       -7.82769
H         -3.74689       -0.67316       -8.69882
H         -2.25679       -0.62149       -9.62644
H          5.33712        4.71916       -2.13546
C          6.96892        3.92403       -3.27502
C          5.73450        3.70576       -2.36325
C          8.08248        4.77716       -2.60905
H          7.42025        2.94693       -3.52857
H          6.64314        4.42912       -4.20428
H          7.69581        5.77004       -2.28832
H          8.47046        4.24991       -1.70917
C          9.25227        5.01352       -3.57329
H          6.13392        3.28098       -1.42522
H          9.64243        4.04860       -3.96087
H          8.92253        5.64018       -4.42945
H         10.08441        5.54249       -3.05775
C         -0.73559        4.54049        1.48289
C          0.14332        5.23184        2.28044
C          1.36277        5.19015        1.64049
C          1.18518        4.46039        0.47137
N         -0.11358        4.06550        0.38413
C          2.31419        4.16449       -0.52195
N          2.59295        2.71191       -0.79642
C          3.07085        1.93808        0.42689
H         -0.08419        5.70562        3.22806
H         -1.78481        4.38105        1.70032
H          2.28009        5.63140        2.00236
H          2.07440        4.71558       -1.44647
H          3.23877        4.66660       -0.18723
C          1.94987        1.75145        1.48596
C          3.46544        0.48441        0.07467
C          4.31102        2.56617        1.06496
H          1.05084        1.26687        1.04463
H          2.30345        1.10246        2.31618
H          1.65444        2.66656        2.00476
H          4.40305        0.46570       -0.50467
H          3.73314       -0.08903        0.98968
H          2.62970       -0.07200       -0.40560
H          5.12383        2.60170        0.32202
H          4.11760        3.58076        1.45532
H          4.66671        1.94844        1.91635
Na         0.81462        1.60046       -1.29471
Mg         3.73382        2.50943       -2.68426
H          3.89093        1.33793       -2.89251
C          4.44402       -0.84211       -3.63866
C          3.81347        0.23852       -2.74767
C          5.95904       -0.91307       -3.65628
H          4.13739       -1.81925       -3.18368
H          4.05500       -0.85832       -4.67975
H          6.35795       -0.94420       -2.59061
H          6.31950       -1.87729       -4.12708
C          6.59133        0.22727       -4.40751
H          2.74858       -0.05098       -2.70823
H          6.30808        0.15364       -5.47944
H          6.20778        1.17532       -3.99244
H          7.69687        0.19193       -4.32107
C         -1.47496        3.68669       -4.39956
C         -0.85328        3.95991       -3.19830
C          0.34679        3.32170       -3.25398
C          0.44747        2.73260       -4.46842
N         -0.67148        2.92817       -5.19091
C          1.71729        2.11819       -4.93014
N          2.83219        3.07657       -4.71395
C          2.74288        4.31771       -5.60688
H         -1.19641        4.58457       -2.38196
H         -2.43969        4.07839       -4.68160
H          1.12804        3.32292       -2.56127
H          1.64306        1.76784       -5.97731
H          1.90893        1.22052       -4.32410
C          1.57973        5.29629       -5.26932
C          4.03323        5.12474       -5.46788
C          2.58867        3.96004       -7.12330
H          1.56817        5.56327       -4.19460
H          1.64773        6.23482       -5.86080
H          0.59884        4.91732       -5.59063
H          4.90078        4.51957       -5.79440
H          3.99233        6.03622       -6.11161
H          4.16468        5.45112       -4.41718
H          3.43110        3.33515       -7.48431
H          1.63393        3.43791       -7.34805
H          2.56078        4.88325       -7.74797
