110
speciation2393.ct
Na         0.78344       -1.71890       -0.53587
Mg         3.52709        0.00266       -1.62519
C         -1.67577       -2.41298       -2.44150
C          0.12224       -3.89481       -2.35369
O         -0.36314       -2.63401       -2.00178
C         -2.71078       -3.01207       -1.48162
C         -0.29757       -5.03764       -1.43071
H         -1.85049       -1.31865       -2.42727
H         -1.77825       -2.67759       -3.52350
H         -0.07242       -4.16175       -3.41693
H          1.17956       -3.72234       -2.23670
H         -1.31870       -5.37720       -1.65698
H          0.30031       -5.93964       -1.63136
H         -0.17662       -4.74514       -0.36767
H         -2.60712       -2.41602       -0.57481
H         -3.71297       -2.94836       -1.95380
H         -2.62638       -4.01599       -1.03273
H          1.69400       -1.00336       -3.43415
C          2.99042       -0.33269       -4.97849
C          2.38842       -0.15395       -3.60974
C          1.87589       -0.34176       -6.05005
H          3.68133        0.51614       -5.17342
H          3.53730       -1.28997       -4.99724
H          1.14234       -1.15323       -5.84130
H          1.31737        0.62537       -6.05630
C          2.48433       -0.55731       -7.41988
H          1.78662        0.74806       -3.81438
H          3.18810        0.27169       -7.64486
H          3.02908       -1.52402       -7.42498
H          1.68600       -0.58028       -8.19001
C          0.95162       -3.24716        2.22704
C          1.39410       -2.92242        3.49383
C          1.88276       -1.63099        3.42420
C          1.72495       -1.23303        2.11200
N          1.14680       -2.20564        1.40173
C          2.10898        0.09337        1.51571
N          1.87123        0.13583        0.02672
C          0.72902        1.07721       -0.22640
H          1.35739       -3.55584        4.36966
H          0.50031       -4.18343        1.92896
H          2.30567       -1.05371        4.23515
H          3.12186        0.40434        1.77932
H          1.52662        0.83331        2.09361
C          1.09424        2.54839        0.11772
C          0.43370        1.04336       -1.68914
C         -0.58428        0.63202        0.49118
H          2.06425        2.81157       -0.35732
H          0.32026        3.24365       -0.27549
H          1.18476        2.74222        1.20151
H          0.24549        0.00028       -2.01827
H         -0.43693        1.66378       -1.98015
H          1.32243        1.52170       -2.10543
H         -0.81079       -0.43559        0.29022
H         -0.55463        0.76637        1.58938
H         -1.45402        1.22017        0.12748
Na         5.10815       -4.80671       -5.43046
Mg         3.86333       -3.37366       -1.63094
C          3.00962       -5.71572       -0.60009
C          2.90206       -5.63752       -2.98281
O          2.90876       -4.92578       -1.76428
C          4.32759       -6.45242       -0.47528
C          2.77053       -4.66146       -4.17647
H          2.91832       -5.00625        0.25916
H          2.15070       -6.40735       -0.48040
H          3.83125       -6.21960       -3.13801
H          2.01604       -6.29916       -3.02283
H          3.63226       -3.97484       -4.19090
H          2.68400       -5.24212       -5.11948
H          1.89992       -3.99149       -4.19333
H          5.15900       -5.77484       -0.71162
H          4.44032       -6.83107        0.56127
H          4.35593       -7.29663       -1.18744
H          5.54419        1.80223       -1.01874
C          4.66029        3.39986       -2.07456
C          4.88700        1.87197       -1.90698
C          3.82473        3.80753       -3.29606
H          4.17591        3.79270       -1.15742
H          5.65541        3.90142       -2.16632
H          4.31507        3.46940       -4.23583
H          2.82337        3.33990       -3.21835
C          3.65513        5.33476       -3.35926
H          5.48936        1.55598       -2.78950
H          3.19929        5.71780       -2.42066
H          4.63486        5.84054       -3.50794
H          2.99080        5.61359       -4.20531
C          7.32694       -5.27465       -3.63706
C          8.20342       -4.93604       -2.64703
C          7.80847       -3.70090       -2.19098
C          6.64469       -3.32946       -2.88505
N          6.40258       -4.30584       -3.80883
C          5.80257       -2.01011       -2.72427
N          4.94195       -1.78314       -1.49164
C          5.68603       -1.86906       -0.18395
H          9.04769       -5.52365       -2.30137
H          7.37053       -6.18949       -4.21878
H          8.33513       -3.19044       -1.40776
H          5.10518       -2.01497       -3.58411
H          6.47806       -1.14628       -2.89257
C          6.98024       -1.01927       -0.18953
C          4.84397       -1.29934        0.93240
C          5.88142       -3.33596        0.25010
H          6.72904        0.04360       -0.36459
H          7.48472       -1.08529        0.79915
H          7.70310       -1.28168       -0.96296
H          3.87411       -1.82955        0.96883
H          5.33503       -1.44329        1.92694
H          4.73597       -0.21900        0.75804
H          4.89897       -3.80193        0.46925
H          6.31849       -3.99487       -0.46958
H          6.50384       -3.40448        1.16543
