81
speciation805.ct
Na         1.40330        2.05952       -0.30135
Mg         6.42679       -1.08134       -1.51381
C          7.92706        1.55950       -1.73984
C          8.89376       -0.23703       -0.47074
O          7.81030        0.22545       -1.25308
C          9.09395        1.73662       -2.71737
C          9.18266        0.59883        0.78141
H          6.99739        1.82957       -2.27420
H          7.97823        2.29059       -0.90747
H          8.61869       -1.24747       -0.11246
H          9.80137       -0.37285       -1.09292
H          8.28669        0.65517        1.43039
H          9.99832        0.11823        1.35831
H          9.52160        1.62265        0.52145
H         10.06679        1.53939       -2.22221
H          9.11874        2.78402       -3.08477
H          8.97735        1.05253       -3.58369
H          1.66024        0.55055       -4.11137
C          2.04160        2.51936       -3.34816
C          1.76582        1.02531       -3.11639
C          0.91004        3.26524       -4.08664
H          2.14939        3.01199       -2.36438
H          2.99327        2.61363       -3.90725
H          0.61779        2.77029       -5.03954
H          0.02320        3.27581       -3.41704
C          1.31628        4.71367       -4.40593
H          0.79657        0.89415       -2.58612
H          0.41530        5.35701       -4.50353
H          1.96311        5.14405       -3.61129
H          1.87158        4.75314       -5.36880
C         -0.85056        0.71630        1.50629
C         -0.82887       -0.45557        2.24718
C          0.42782       -1.00314        2.09063
C          1.12544       -0.14135        1.25421
N          0.33594        0.89241        0.90627
C          2.55477       -0.31606        0.78752
N          3.03000        0.78979       -0.09169
C          4.11297        1.62981        0.48017
H         -1.63722       -0.85817        2.83185
H         -1.69012        1.39166        1.40130
H          0.80118       -1.92297        2.52217
H          2.63063       -1.26926        0.23348
H          3.17056       -0.43482        1.70060
C          5.37444        0.80022        0.78676
C          4.48084        2.70158       -0.55912
C          3.63383        2.34903        1.76046
H          5.68220        0.26052       -0.12330
H          6.19400        1.47910        1.11090
H          5.23703        0.06144        1.59324
H          3.61397        3.35251       -0.76815
H          5.30358        3.35060       -0.18499
H          4.80943        2.22465       -1.50734
H          2.73342        2.96427        1.54637
H          3.37681        1.63094        2.56844
H          4.42883        3.02043        2.15085
Mg         3.36065        0.02447       -1.91871
C          7.13153       -3.76679       -0.17197
C          6.44638       -4.96270       -0.06265
C          5.23758       -4.79416       -0.71589
C          5.25512       -3.49330       -1.20413
N          6.39117       -2.88216       -0.87204
C          4.18620       -2.80886       -1.99037
N          4.66778       -1.46553       -2.44679
C          5.05464       -1.42065       -3.88115
H          6.78438       -5.85878        0.43582
H          8.10885       -3.55818        0.23927
H          4.45519       -5.52414       -0.83542
H          3.28667       -2.69891       -1.36189
H          3.91968       -3.47486       -2.82029
C          3.87042       -1.74646       -4.82345
C          5.52446        0.00445       -4.17444
C          6.22915       -2.38485       -4.16790
H          3.00922       -1.09685       -4.60457
H          4.17054       -1.59156       -5.88133
H          3.52934       -2.79814       -4.75889
H          6.45229        0.20291       -3.61223
H          5.75053        0.13795       -5.25244
H          4.75098        0.74138       -3.87100
H          7.08875       -2.15879       -3.49800
H          5.94221       -3.44496       -4.00936
H          6.57617       -2.28288       -5.21800
