81
speciation390.ct
Na         4.33553        4.43781        3.13074
Mg         2.14333        4.93425       -1.01918
C          3.27491        6.12952        5.73703
C          3.71515        3.94101        6.22281
O          3.28864        4.79915        5.16933
C          2.65131        7.25912        4.90781
C          3.70552        2.48102        5.82222
H          2.60409        6.11573        6.62596
H          4.28954        6.45697        6.06186
H          4.73676        4.20924        6.58093
H          2.99694        4.00950        7.07574
H          4.48154        2.28686        5.05651
H          3.93156        1.87058        6.72633
H          2.70310        2.19407        5.44456
H          1.73042        6.92849        4.40882
H          2.39121        8.10329        5.58125
H          3.33735        7.75922        4.20817
H          1.77429        5.32758       -3.86740
C          0.09848        6.68648       -3.58340
C          0.97447        5.49199       -3.12188
C          0.80851        8.03510       -3.53079
H         -0.28334        6.50676       -4.61290
H         -0.83250        6.73705       -2.97480
H          0.06120        8.82406       -3.76438
H          1.21999        8.24431       -2.52162
C          1.91962        8.09344       -4.56390
H          0.22677        4.70640       -3.31685
H          2.71028        7.35495       -4.32344
H          1.49744        7.87239       -5.56736
H          2.36198        9.10756       -4.56738
C          6.60585        4.61017        0.75123
C          7.01678        4.22876       -0.50720
C          6.04591        3.38638       -0.99594
C          5.07970        3.29578       -0.01092
N          5.40498        4.06868        1.04821
C          3.86883        2.42604       -0.07106
N          2.92716        2.86411       -1.12826
C          1.81776        1.88342       -1.32032
H          7.93158        4.52347       -1.00407
H          7.15194        5.26710        1.41508
H          6.06232        2.87737       -1.95008
H          4.23652        1.39415       -0.25499
H          3.39321        2.41719        0.91937
C          1.00048        1.71287       -0.02151
C          0.90399        2.47295       -2.35552
C          2.26999        0.49927       -1.86915
H          0.71885        2.71420        0.36619
H          0.06807        1.14202       -0.21028
H          1.57378        1.17809        0.76054
H          1.46788        2.68004       -3.29678
H          0.03815        1.82101       -2.58947
H          0.51818        3.37640       -1.86662
H          2.83304        0.60287       -2.82269
H          2.87933       -0.08554       -1.15309
H          1.37264       -0.12525       -2.09245
Mg         4.01278        2.69205       -2.75455
C          4.71616        6.78515       -0.27001
C          5.13503        7.16388        1.01745
C          4.24742        6.56299        1.87220
C          3.33133        5.88663        1.10281
N          3.59771        6.01900       -0.22435
C          2.11669        5.13989        1.59350
N          1.01034        5.37462        0.65758
C          0.43649        6.77090        0.76727
H          5.97297        7.74960        1.32345
H          5.22619        7.06909       -1.17522
H          4.30460        6.59938        2.93229
H          1.85612        5.36211        2.64459
H          2.31901        4.06655        1.56556
C          1.46164        7.94771        0.68482
C         -0.46964        6.93186       -0.40645
C         -0.41897        6.94760        2.02525
H          2.07580        7.89845       -0.23923
H          0.95346        8.93423        0.62749
H          2.11259        8.01932        1.57726
H         -1.26679        6.15830       -0.44085
H         -0.90329        7.95326       -0.48948
H          0.23070        6.78122       -1.20302
H         -1.22953        6.19340        2.05949
H          0.18250        6.86523        2.93955
H         -0.87790        7.96434        2.02612
