110
speciation2120.ct
Na         1.04682       -0.05796       -0.06670
Mg         4.10915       -1.52393       -1.54342
C         -1.80675        0.20260       -1.36000
C         -1.83160        0.80734        0.91189
O         -1.27318       -0.05796       -0.06670
C         -1.55345        1.61644       -1.87591
C         -1.25529        0.51380        2.29003
H         -1.30099       -0.49578       -2.05944
H         -2.89178       -0.02383       -1.40485
H         -1.60481        1.87505        0.71082
H         -2.93095        0.64743        0.96847
H         -0.17581        0.76513        2.31464
H         -1.77046        1.14863        3.04407
H         -1.39993       -0.55196        2.56050
H         -0.50218        1.78776       -1.75062
H         -1.80230        1.70742       -2.95194
H         -2.11413        2.39833       -1.32518
H          1.69562       -1.39764       -2.79709
C          2.76378       -2.33966       -4.41501
C          2.71979       -1.35478       -3.23767
C          1.72777       -2.04091       -5.52599
H          3.78311       -2.36644       -4.85032
H          2.51515       -3.33562       -4.00664
H          1.67859       -2.91697       -6.20980
H          0.71790       -1.91330       -5.07661
C          2.08562       -0.83899       -6.40795
H          2.90527       -0.35695       -3.62458
H          2.24632        0.09089       -5.83126
H          3.00729       -1.06699       -6.98440
H          1.26413       -0.65581       -7.13527
C          5.82895        4.09923       -0.64662
C          6.00279        3.80412        0.66302
C          5.03213        2.88274        0.96734
C          4.40822        2.48761       -0.20736
N          4.80208        3.39902       -1.14840
C          3.27875        1.42487       -0.37256
N          3.41682       -0.05796       -0.06670
C          3.85020       -0.41114        1.36799
H          6.70639        4.27476        1.33300
H          6.37009        4.85058       -1.20596
H          4.80824        2.59650        1.96742
H          3.01207        1.44012       -1.43415
H          2.41895        1.81258        0.20904
C          2.83402        0.10563        2.40143
C          3.88443       -1.92583        1.52209
C          5.31330       -0.05661        1.82908
H          1.84006       -0.34698        2.20673
H          3.13721       -0.19207        3.43094
H          2.75111        1.20810        2.38635
H          4.76925       -2.26374        0.95620
H          4.09326       -2.23886        2.57302
H          2.93577       -2.40346        1.22291
H          6.06046       -0.35755        1.10020
H          5.61764        0.89952        2.17096
H          5.55167       -0.57789        2.78366
Na         4.43217        4.31590       -3.00500
Mg         6.11878        4.32885       -6.27823
C          7.16042       -1.62437       -1.33762
C          6.22303        0.03386       -2.68479
O          6.04248       -1.28546       -2.16561
C          7.22919       -3.10349       -1.00631
C          7.39724        0.16955       -3.68831
H          8.11526       -1.48902       -1.87320
H          7.21711       -1.00785       -0.43418
H          5.30792        0.29969       -3.25084
H          6.33689        0.78103       -1.86708
H          7.30334       -0.57037       -4.51015
H          7.40906        1.19057       -4.12262
H          8.39596        0.05348       -3.21779
H          7.26317       -3.69147       -1.94632
H          8.15947       -3.31724       -0.43879
H          6.39478       -3.41523       -0.37064
H          4.36607       -3.94314       -0.01398
C          4.23964       -4.76259       -1.89917
C          3.79873       -3.68433       -0.91984
C          4.27620       -6.14974       -1.23099
H          3.56472       -4.77662       -2.76919
H          5.25720       -4.52612       -2.25094
H          4.94341       -6.14048       -0.33635
H          3.25502       -6.43443       -0.89950
C          4.82417       -7.18622       -2.20184
H          2.73504       -3.83530       -0.64726
H          4.21943       -7.19051       -3.13167
H          5.88026       -6.94295       -2.45215
H          4.79317       -8.19426       -1.73890
C          1.72575        4.40754       -2.72727
C          1.58963        3.08425       -2.65900
C          2.10643        2.57349       -3.84913
C          2.49340        3.67631       -4.58972
N          2.49759        4.65311       -3.76463
C          3.56446        3.79484       -5.63916
N          4.62900        4.66920       -5.07256
C          4.67538        6.17768       -4.95397
H          1.24998        2.62334       -1.75977
H          1.47980        5.15621       -1.98055
H          2.29886        1.55135       -4.04326
H          3.15547        4.12218       -6.59748
H          4.00409        2.76545       -5.75375
C          3.74033        6.87206       -3.90196
C          6.09942        6.47848       -4.44944
C          4.41636        6.87147       -6.29868
H          3.84469        6.44084       -2.87767
H          3.99390        7.94257       -3.77750
H          2.67256        6.89224       -4.21809
H          6.85831        6.09859       -5.15889
H          6.25352        7.56675       -4.30568
H          6.27102        5.97568       -3.46706
H          5.16472        6.55126       -7.04066
H          3.39039        6.62016       -6.64813
H          4.48627        7.96623       -6.15132
