110
speciation2399.ct
Na         1.39293        1.93548        0.31753
Mg         6.01707       -1.16287       -3.59428
C          3.20387        4.17323        1.71180
C          1.37736        4.86411        0.34022
O          2.30229        3.84131        0.64932
C          2.53913        4.46341        3.05223
C          2.03910        6.08807       -0.29829
H          3.90419        3.34547        1.89450
H          3.90075        4.97989        1.40813
H          0.67087        4.44932       -0.40984
H          0.75971        5.13850        1.21790
H          2.57472        5.80729       -1.22670
H          1.25884        6.83319       -0.55184
H          2.75549        6.57028        0.39538
H          1.84859        3.63749        3.32093
H          3.32611        4.54543        3.83236
H          1.99857        5.42929        3.01974
H          7.20696        0.97060       -2.33453
C          8.38999        1.11220       -4.08143
C          7.61741        0.26127       -3.08470
C          7.47764        2.11987       -4.77473
H          9.18574        1.66585       -3.53080
H          8.88043        0.46070       -4.82730
H          6.66441        1.58043       -5.30395
H          7.02511        2.80201       -4.01975
C          8.27360        2.94732       -5.77832
H          8.34932       -0.38619       -2.55682
H          9.07780        3.51476       -5.26122
H          8.73269        2.28072       -6.53952
H          7.60011        3.66565       -6.28880
C         -1.75592        1.46388        0.35145
C         -2.61428        0.38956        0.25066
C         -1.81657       -0.73662        0.10434
C         -0.51884       -0.28172        0.13062
N         -0.48276        1.05018        0.28928
C          0.73123       -1.09853       -0.00834
N          1.92479       -0.22294        0.06945
C          2.69340       -0.33530        1.32527
H         -3.69350        0.41745        0.25967
H         -2.04938        2.50685        0.46872
H         -2.15724       -1.75767       -0.02260
H          0.69058       -1.59214       -1.00185
H          0.71622       -1.89890        0.74955
C          3.25159       -1.74163        1.58709
C          3.82929        0.66918        1.15675
C          1.86224        0.04548        2.56614
H          3.70795       -2.10951        0.70430
H          4.01200       -1.73517        2.39468
H          2.47990       -2.48997        1.84667
H          3.36664        1.63153        1.02266
H          4.52803        0.69055        2.01796
H          4.37338        0.55924        0.20809
H          1.38281        1.03555        2.44933
H          1.07011       -0.71024        2.75642
H          2.51766        0.07395        3.46437
Na         6.45971       -1.59365        2.39605
Mg         3.18335       -0.27478       -1.60851
C          3.75294        2.08029       -3.08609
C          1.47843        1.54732       -3.37529
O          2.77049        1.05571       -3.00105
C          3.52845        3.21209       -2.09162
C          0.43812        0.45633       -3.32512
H          4.72887        1.61469       -2.84798
H          3.84162        2.47934       -4.12395
H          1.12049        2.35029       -2.71070
H          1.51506        1.90401       -4.43621
H          0.29602        0.16302       -2.28208
H         -0.53358        0.84845       -3.69556
H          0.74052       -0.41779       -3.93346
H          3.40895        2.75626       -1.09639
H          4.39210        3.90732       -2.07405
H          2.63536        3.81346       -2.35392
H          5.80863       -3.06560       -5.58249
C          7.01184       -1.65343       -6.62551
C          5.89985       -1.96051       -5.63690
C          8.36403       -2.16316       -6.12680
H          6.77329       -2.14381       -7.59803
H          7.04876       -0.55581       -6.77876
H          8.58555       -1.71526       -5.13901
H          8.34395       -3.26842       -6.00416
C          9.46623       -1.78235       -7.11197
H          4.95065       -1.58868       -6.07482
H          9.29196       -2.27247       -8.09401
H          9.48602       -0.68031       -7.25701
H         10.45184       -2.10587       -6.71870
C          8.36341       -3.33442        0.63613
C          8.67360       -3.66290       -0.66412
C          7.77899       -2.98724       -1.47228
C          6.91632       -2.31853       -0.62325
N          7.30710       -2.50847        0.65595
C          5.76552       -1.39423       -0.92676
N          4.77949       -1.62907       -2.02631
C          4.14858       -2.95995       -2.33532
H          9.47936       -4.30885       -0.98273
H          8.88924       -3.66192        1.52421
H          7.76276       -3.00389       -2.54987
H          6.18284       -0.39259       -1.07522
H          5.30913       -1.24220        0.02432
C          3.32217       -3.58910       -1.20290
C          3.16925       -2.71754       -3.49783
C          5.17604       -4.01877       -2.75099
H          2.49873       -2.92601       -0.89371
H          2.84126       -4.53039       -1.55181
H          3.96652       -3.88476       -0.35045
H          3.67307       -2.26491       -4.36281
H          2.69317       -3.66568       -3.83103
H          2.36399       -2.02057       -3.18379
H          5.84939       -3.63958       -3.52819
H          5.75916       -4.35925       -1.87722
H          4.66861       -4.92945       -3.13427
