83
speciation589.ct
Na         6.02003        3.69753        2.20753
Mg         1.10134        1.87243       -2.21298
C          8.90603        3.45198        2.63847
C          8.64167        5.65714        1.91555
O          8.06506        4.34907        1.93469
C          8.92872        3.70543        4.14772
C          7.83005        6.62032        1.06157
H          8.50636        2.43473        2.46552
H          9.93797        3.43804        2.22319
H          8.73772        6.10958        2.92696
H          9.64662        5.59554        1.43833
H          6.88481        6.88532        1.57562
H          8.42104        7.55528        0.91402
H          7.61461        6.18115        0.06758
H          7.89200        3.78016        4.53050
H          9.45695        2.88285        4.66574
H          9.47290        4.64812        4.38974
C          3.21455        3.02891        3.65291
C          1.93714        2.54859        3.47148
C          1.81126        2.21541        2.13391
C          3.01122        2.53204        1.56247
N          3.89273        3.00835        2.48857
C          3.34231        2.33904        0.09505
N          2.49968        3.15769       -0.84743
C          2.68410        4.69581       -0.58307
H          1.15173        2.46653        4.21581
H          3.60544        3.40881        4.58838
H          0.93621        1.82363        1.64563
H          4.41888        2.56384       -0.04983
H          3.24565        1.25491       -0.14620
C          4.18023        5.11310       -0.66277
C          1.93370        5.63653       -1.55690
C          2.11460        5.20621        0.77424
H          4.61557        4.85993       -1.65454
H          4.28644        6.21415       -0.52590
H          4.80109        4.66492        0.13458
H          0.84537        5.39948       -1.59765
H          1.97202        6.70205       -1.24452
H          2.44724        5.74323       -2.51914
H          1.02148        5.03358        0.85325
H          2.62274        4.87594        1.67646
H          2.27553        6.30819        0.85923
Na         3.52037        2.18121       -2.71209
C          6.54032        1.33604       -2.80239
C          5.86240        2.91088       -4.45365
O          5.47032        1.83476       -3.61395
C          7.23567        2.38689       -1.92305
C          6.86461        2.50860       -5.55156
H          6.12747        0.55091       -2.13686
H          7.29516        0.79513       -3.41791
H          4.95555        3.28814       -4.96658
H          6.23907        3.76534       -3.86231
H          6.40010        1.79967       -6.26889
H          7.18273        3.41793       -6.10420
H          7.78813        2.05131       -5.14231
H          6.48309        2.89980       -1.29413
H          7.99024        1.89843       -1.27139
H          7.79229        3.13281       -2.52855
C         -1.80670        0.55335       -3.61001
C         -2.00605       -0.00674       -4.88118
C         -0.75942       -0.26318       -5.40420
C          0.13159        0.17126       -4.44290
N         -0.46488        0.69640       -3.35596
C          1.56300        0.38165       -4.56872
N          1.79746        1.74093       -4.05511
C          1.14789        2.92058       -4.71097
H         -2.93951       -0.09997       -5.43745
H         -2.60660        1.00617       -3.04329
H         -0.53250       -0.59794       -6.41579
H          1.94314        0.22796       -5.59876
H          2.05295       -0.35137       -3.88659
C         -0.40345        3.01078       -4.66438
C          1.58118        4.03200       -3.86841
C          1.58778        3.15763       -6.14896
H         -0.78800        2.94533       -3.61934
H         -0.78395        3.98844       -5.00814
H         -0.85713        2.29598       -5.36328
H          2.68974        4.08844       -3.85330
H          1.12256        4.99692       -4.16850
H          1.21236        3.75253       -2.86315
H          2.67548        3.34813       -6.21244
H          1.29615        2.30032       -6.78676
H          1.05460        4.06202       -6.52463
