96
speciation1322.ct
Na         1.28049        1.34200        0.09951
Mg         4.97909        3.10611       -2.36463
C         -0.60733        2.43472        2.89794
C          1.56194        3.03047        3.04415
O          0.66435        2.27128        2.22805
C         -1.79995        1.77624        2.25611
C          3.00816        2.86539        2.67329
H         -0.55948        1.97056        3.91316
H         -0.88539        3.51626        2.99672
H          1.31852        4.12028        2.99519
H          1.50694        2.69489        4.11281
H          3.18144        3.25270        1.65286
H          3.61263        3.44892        3.40411
H          3.29958        1.80704        2.76272
H         -1.61518        0.69447        2.11018
H         -2.68030        1.88127        2.93135
H         -2.05208        2.32803        1.33958
H          6.05331        4.09441       -0.25562
C          7.61009        2.87828       -1.16862
C          6.14539        3.07736       -0.69115
C          8.26516        3.99537       -2.04084
H          8.23410        2.82980       -0.25179
H          7.70075        1.90496       -1.69263
H          8.23965        4.96375       -1.49815
H          9.33623        3.71661       -2.16848
C          7.72831        4.22043       -3.46062
H          5.88264        2.33757        0.08695
H          7.80138        3.29946       -4.07562
H          6.68770        4.59827       -3.45298
H          8.36326        4.99252       -3.95996
C         -1.65928        0.46071       -0.55002
C         -2.29454       -0.73960       -0.72702
C         -1.31398       -1.71506       -0.68735
C         -0.10084       -1.05120       -0.47391
N         -0.34662        0.26567       -0.36367
C          1.25837       -1.71540       -0.35960
N          2.35704       -0.72703       -0.18219
C          3.47091       -1.18185        0.69849
H         -3.35893       -0.87117       -0.85964
H         -2.14734        1.41718       -0.52394
H         -1.47648       -2.77745       -0.78758
H          1.44852       -2.29477       -1.28966
H          1.18677       -2.43796        0.47908
C          4.01346       -2.61269        0.37598
C          4.62263       -0.20936        0.45528
C          2.99998       -1.15803        2.15401
H          4.42102       -2.69337       -0.65347
H          4.84528       -2.85071        1.07517
H          3.25438       -3.40874        0.51526
H          4.27149        0.83618        0.55352
H          5.47716       -0.40193        1.13177
H          4.99527       -0.34255       -0.57854
H          2.52506       -0.18837        2.38957
H          2.24371       -1.95031        2.33786
H          3.84951       -1.34645        2.83850
Mg         3.43667       -0.60344       -1.89457
C          4.05336       -1.16925       -4.44868
C          5.97691       -0.52820       -3.20027
O          4.58204       -0.34225       -3.42895
C          4.29923       -2.67012       -4.24828
C          6.84818       -0.03106       -4.36860
H          2.95441       -1.01407       -4.43722
H          4.38268       -0.83354       -5.45589
H          6.27701        0.08162       -2.32817
H          6.22219       -1.57331       -2.93940
H          6.72747        1.06593       -4.50358
H          7.92099       -0.23305       -4.13526
H          6.61601       -0.54517       -5.31623
H          3.97266       -2.97460       -3.23165
H          3.72442       -3.24361       -5.00325
H          5.36833       -2.92906       -4.39436
C          4.12975        3.62984       -5.21336
C          3.10019        3.35607       -6.09033
C          2.14277        2.66476       -5.37495
C          2.62712        2.55307       -4.08322
N          3.84138        3.13416       -3.99709
C          1.92471        1.86411       -2.93324
N          1.69188        2.73396       -1.75522
C          0.74942        3.87733       -1.96799
H          3.06033        3.62005       -7.13876
H          5.05170        4.14044       -5.45711
H          1.20320        2.28673       -5.75538
H          2.57450        1.03798       -2.61107
H          0.97636        1.39511       -3.26906
C         -0.60858        3.43349       -2.55724
C          0.52483        4.51458       -0.59518
C          1.32523        4.97913       -2.89650
H         -1.06818        2.65439       -1.93830
H         -1.31076        4.29366       -2.61570
H         -0.50175        3.04187       -3.59150
H          1.49274        4.88135       -0.18892
H         -0.17572        5.37462       -0.66786
H          0.10061        3.77043        0.10785
H          2.33593        5.29755       -2.56806
H          1.36606        4.67434       -3.95561
H          0.65740        5.86744       -2.90514
