110
speciation2427.ct
Na         0.96371       -0.07168        0.05954
Mg         3.21560       -2.63311        0.15413
C         -2.17772       -1.23085       -0.17275
C         -1.70553        0.84915       -0.98076
O         -1.35629       -0.07168        0.05954
C         -3.63578       -1.05487        0.29337
C         -0.81568        2.07323       -1.02824
H         -2.14667       -1.57901       -1.23062
H         -1.83975       -2.08049        0.39303
H         -1.63707        0.38120       -1.99319
H         -2.72961        1.24624       -0.81792
H          0.22676        1.79067       -1.26903
H         -1.19304        2.73590       -1.84182
H         -0.86640        2.62596       -0.06998
H         -4.16963       -0.24866       -0.24636
H         -4.19775       -1.99290        0.09235
H         -3.67667       -0.85029        1.38404
H          5.48656       -1.14320        0.24299
C          7.16807       -2.24005       -0.28108
C          5.74060       -2.16553        0.38972
C          8.25570       -1.44973        0.45822
H          7.63592       -3.23237       -0.33990
H          7.07870       -1.84288       -1.31719
H          9.17684       -1.42055       -0.16698
H          7.94090       -0.40453        0.59755
C          8.63661       -2.11336        1.78759
H          5.82909       -2.51252        1.43136
H          7.75642       -2.30533        2.43029
H          9.14205       -3.08516        1.58920
H          9.33561       -1.46108        2.34696
C          1.22568       -1.93915       -2.58661
C          1.05404       -0.95658       -3.54355
C          1.85257        0.09613       -3.18343
C          2.49406       -0.28460       -2.03181
N          2.16332       -1.58217       -1.68029
C          3.35032        0.61592       -1.19590
N          3.33371       -0.07168        0.05954
C          3.92030        0.62177        1.31602
H          0.41739       -0.98592       -4.42168
H          0.72508       -2.90788       -2.60266
H          1.97203        1.05305       -3.69883
H          4.37770        0.71062       -1.61368
H          2.86952        1.59998       -1.07480
C          3.13851        1.89713        1.66273
C          3.84185       -0.29106        2.58249
C          5.41854        1.05707        1.24625
H          2.05437        1.68855        1.73164
H          3.47062        2.27551        2.66280
H          3.34214        2.69767        0.92896
H          4.23183       -1.31110        2.39809
H          4.44458        0.11219        3.42493
H          2.83871       -0.34303        3.04221
H          6.13718        0.25139        1.45828
H          5.67005        1.60691        0.32432
H          5.66835        1.69929        2.11883
Na         4.12370       -1.97033       -1.11858
Mg         6.34920       -3.31629       -3.55921
C          9.08614       -2.90522       -4.33788
C          7.52359       -1.54474       -5.45242
O          7.74865       -2.77750       -4.79000
C          9.26702       -4.19092       -3.54365
C          8.29598       -1.43089       -6.78020
H          9.76807       -3.01666       -5.20931
H          9.39321       -2.04115       -3.70904
H          6.44535       -1.50484       -5.71266
H          7.74634       -0.67869       -4.79181
H          8.08627       -2.30600       -7.43187
H          9.39117       -1.36111       -6.61116
H          7.99425       -0.50652       -7.31516
H          8.98515       -5.07093       -4.16143
H         10.33812       -4.29459       -3.26053
H          8.65194       -4.17014       -2.62210
H          2.24379       -2.73970        2.60433
C          0.44021       -2.92609        1.41354
C          1.80835       -2.33600        1.67135
C         -0.55443       -2.56921        2.55037
H          0.15002       -2.47996        0.44728
H          0.46853       -4.01910        1.26027
H         -0.57506       -1.46599        2.70621
H         -1.57940       -2.90063        2.29008
C         -0.24106       -3.27072        3.86370
H          1.61977       -1.25941        1.73688
H         -0.29757       -4.36982        3.71530
H          0.75877       -2.99485        4.24897
H         -1.00149       -2.97354        4.61651
C          3.00399       -5.40258        1.22872
C          3.53392       -6.67173        1.15512
C          4.48032       -6.64313        0.16519
C          4.49187       -5.35236       -0.31984
N          3.57862       -4.58716        0.31985
C          5.45281       -4.88352       -1.36372
N          4.91369       -3.86897       -2.29669
C          3.99333       -4.54757       -3.30083
H          3.27790       -7.51866        1.77485
H          2.26186       -5.09571        1.94421
H          5.11886       -7.45920       -0.14837
H          5.96861       -5.72452       -1.85944
H          6.25999       -4.49457       -0.80748
C          2.73856       -5.19666       -2.65139
C          3.53100       -3.52340       -4.33903
C          4.70962       -5.65574       -4.13457
H          2.20263       -4.48885       -1.99267
H          2.03621       -5.58498       -3.41397
H          2.99076       -6.10655       -2.06427
H          4.37481       -3.16527       -4.95884
H          2.76684       -3.97601       -5.01581
H          3.11328       -2.64721       -3.86090
H          5.57344       -5.23452       -4.69108
H          5.05878       -6.52372       -3.54294
H          4.00657       -6.09424       -4.87806
