83
speciation270.ct
Na         1.12364        0.26897        0.25437
Mg        -2.56647        2.72576       -1.83287
C         -1.11768        2.00399        1.77358
C          0.23137        3.61514        0.73186
O          0.17473        2.24400        1.20466
C         -2.32410        2.23634        0.84390
C          0.27841        4.69092        1.81879
H         -1.17145        0.94654        2.07368
H         -1.24176        2.58102        2.71768
H          1.09292        3.83963        0.11306
H         -0.58145        3.85365        0.05086
H          1.13328        4.53005        2.50501
H          0.40956        5.68204        1.32333
H         -0.67375        4.73968        2.38183
H         -2.19581        1.63956       -0.07979
H         -3.25519        1.92509        1.35799
H         -2.48704        3.30608        0.59277
C         -0.33285        4.55060       -2.31984
C          0.97017        4.62873       -2.76304
C          1.34472        3.34620       -3.07984
C          0.26456        2.53145       -2.79599
N         -0.76383        3.27056       -2.34088
C          0.23610        1.06294       -3.08160
N          0.06232        0.13744       -1.92697
C         -0.03910       -1.27410       -2.41740
H          1.57638        5.51546       -2.85513
H         -0.93472        5.38846       -1.99609
H          2.29262        3.05182       -3.49701
H          1.19317        0.83733       -3.58234
H         -0.58542        0.93204       -3.81331
C          1.20846       -1.71354       -3.22906
C         -0.09548       -2.13020       -1.19888
C         -1.32863       -1.56314       -3.22938
H          2.13645       -1.50351       -2.65546
H          1.17255       -2.80452       -3.44324
H          1.26724       -1.21108       -4.21471
H         -0.97591       -1.89125       -0.56121
H         -0.12332       -3.21447       -1.45637
H          0.84578       -1.87607       -0.68688
H         -2.23564       -1.31638       -2.63633
H         -1.36736       -1.02100       -4.19232
H         -1.37950       -2.64679       -3.48664
Na         6.86263       -0.98314       -2.79876
C          0.56541       -1.17212        3.00564
C          0.85108       -3.04197        1.59800
O          0.56766       -1.60768        1.65204
C          1.84209       -1.49018        3.79417
C         -0.23167       -3.94011        2.23006
H          0.48570       -0.07399        2.99257
H         -0.34219       -1.53389        3.54113
H          0.93036       -3.43619        0.58223
H          1.85474       -3.28503        1.99352
H         -1.22131       -3.77152        1.75450
H          0.03876       -5.01080        2.07266
H         -0.31597       -3.79403        3.32533
H          2.72509       -1.14191        3.21983
H          1.80639       -0.97872        4.77623
H          1.93422       -2.57590        4.01032
C          7.90145       -0.92284        0.12472
C          7.52926       -0.87639        1.44860
C          6.14729       -0.88404        1.48124
C          5.73813       -0.93838        0.16437
N          6.80177       -0.97036       -0.65498
C          4.29908       -0.89732       -0.29988
N          3.59371        0.32811        0.17206
C          4.13980        1.60452       -0.36990
H          8.19830       -0.82331        2.30499
H          8.91667       -0.90851       -0.24897
H          5.52566       -0.84503        2.35721
H          3.78692       -1.78759        0.11911
H          4.24418       -0.98168       -1.40550
C          4.11377        1.64815       -1.91117
C          3.21223        2.64562        0.16080
C          5.55654        2.01467        0.11777
H          3.10589        1.35227       -2.27017
H          4.36363        2.66305       -2.28749
H          4.85140        0.95068       -2.34357
H          3.22566        2.67104        1.27503
H          3.43978        3.66381       -0.23077
H          2.24277        2.27796       -0.20120
H          5.62500        1.95276        1.22692
H          6.36479        1.42884       -0.34723
H          5.78278        3.05641       -0.18067
