110
speciation2331.ct
Na         0.69083        0.22687        0.62341
Mg        -4.92300       -1.27165       -3.08001
C         -1.41845        2.87664        1.64090
C          0.14115        3.11298       -0.01924
O         -0.26389        2.26037        1.04021
C         -1.88183        2.23836        2.93579
C          1.44973        2.63341       -0.57105
H         -1.17209        3.92715        1.94644
H         -2.28225        2.91971        0.92942
H         -0.62279        3.13068       -0.82991
H          0.33224        4.14892        0.35570
H          1.33029        1.62010       -1.00215
H          1.80338        3.32542       -1.36036
H          2.18416        2.62586        0.25292
H         -1.05453        2.21179        3.67150
H         -2.70022        2.86401        3.36722
H         -2.28497        1.22451        2.74984
H         -6.49985       -2.89872       -4.53307
C         -4.73091       -4.10122       -4.58965
C         -5.40408       -2.72728       -4.59067
C         -5.07175       -4.88672       -3.31958
H         -5.09556       -4.67188       -5.47423
H         -3.63113       -3.97713       -4.68090
H         -4.69152       -4.33102       -2.43559
H         -6.17289       -5.00061       -3.22812
C         -4.44314       -6.27929       -3.34495
H         -5.17266       -2.23195       -5.55875
H         -4.85246       -6.87503       -4.19031
H         -3.34043       -6.20807       -3.45169
H         -4.67621       -6.81008       -2.39765
C          0.21365       -2.75115        0.53139
C         -0.36411       -3.91317        0.09295
C         -1.31126       -3.55720       -0.83044
C         -1.28929       -2.17894       -0.90598
N         -0.32814       -1.66428       -0.07182
C         -2.22006       -1.39669       -1.80096
N         -3.64640       -1.75274       -1.56804
C         -4.27409       -1.35242       -0.28391
H         -0.11279       -4.92216        0.40538
H          1.00587       -2.68075        1.25524
H         -1.95849       -4.23017       -1.37673
H         -2.04644       -0.31172       -1.72848
H         -1.98013       -1.69869       -2.84286
C         -4.10698        0.15830       -0.03586
C         -5.77111       -1.68898       -0.38355
C         -3.72264       -2.14651        0.92187
H         -4.49793        0.73515       -0.89715
H         -4.65070        0.46948        0.88018
H         -3.03917        0.42337        0.11167
H         -5.91926       -2.77885       -0.54290
H         -6.30662       -1.39209        0.54420
H         -6.23838       -1.16176       -1.23004
H         -3.82006       -3.24077        0.74291
H         -2.67077       -1.90547        1.14894
H         -4.29187       -1.89434        1.84156
Na         6.60348       -3.12714       -0.91239
Mg         4.04052       -4.11078        0.91626
C          3.10000       -3.75935        3.50031
C          4.67391       -5.49096        3.32167
O          3.61889       -4.79492        2.68199
C          4.08484       -2.62120        3.79529
C          5.22936       -6.56364        2.40156
H          2.24651       -3.32078        2.95500
H          2.67077       -4.17132        4.44018
H          5.52357       -4.82557        3.58029
H          4.28827       -5.99794        4.23396
H          5.70076       -6.08630        1.52224
H          6.00922       -7.14587        2.93790
H          4.42402       -7.25235        2.07204
H          4.52313       -2.23296        2.85252
H          3.54576       -1.79666        4.30791
H          4.89343       -2.95012        4.47930
H         -7.10069        0.37057       -2.61901
C         -6.77814        0.99189       -4.64666
C         -6.22991        0.51942       -3.29406
C         -7.69156       -0.05757       -5.28378
H         -7.36351        1.92911       -4.49708
H         -5.92406        1.21482       -5.31918
H         -7.12283       -0.98317       -5.42155
H         -8.56420       -0.26306       -4.62455
C         -8.18534        0.36977       -6.66124
H         -5.63439        1.35449       -2.86841
H         -8.82345        1.27457       -6.58944
H         -7.32119        0.57655       -7.32840
H         -8.78036       -0.45641       -7.10689
C          3.89856        0.74235        1.05597
C          5.22283        0.45193        0.80122
C          5.23145       -0.67313        0.03148
C          3.91536       -1.05546       -0.14360
N          3.06444       -0.15418        0.46411
C          3.52360       -2.24777       -0.99740
N          4.47302       -3.40901       -0.89497
C          4.12612       -4.58613       -1.73193
H          6.10065        1.00494        1.11869
H          3.58777        1.60143        1.63554
H          6.12153       -1.13779       -0.36067
H          2.50651       -2.55703       -0.71348
H          3.49711       -1.86167       -2.03543
C          3.82293       -4.19002       -3.19156
C          5.32898       -5.54312       -1.70759
C          2.90771       -5.34456       -1.15415
H          4.64264       -3.56978       -3.60853
H          3.68557       -5.09279       -3.82343
H          2.87078       -3.61834       -3.25059
H          5.52053       -5.89230       -0.67541
H          5.14231       -6.43761       -2.33961
H          6.24515       -5.04275       -2.08214
H          3.07585       -5.63549       -0.09545
H          1.98456       -4.73587       -1.20887
H          2.72493       -6.27983       -1.72758
