68
speciation23.ct
Na         1.04532        0.05145        0.07280
Mg         1.67764        3.39690       -2.12856
C         -1.75403        0.68672       -1.10155
C         -1.88768        0.55517        1.24944
O         -1.27468        0.05145        0.07280
C         -1.48692        2.19742       -1.17080
C         -1.32157       -0.13007        2.49090
H         -1.21892        0.21873       -1.95423
H         -2.83337        0.46772       -1.25711
H         -1.71475        1.64265        1.38479
H         -2.97791        0.33621        1.22050
H         -0.24906        0.12691        2.62645
H         -1.87743        0.22095        3.38859
H         -1.42982       -1.23215        2.42022
H         -0.41509        2.41250       -0.97852
H         -1.75173        2.56997       -2.18278
H         -2.11728        2.75616       -0.44823
C          1.88474        1.10461       -3.96517
C          2.50918       -0.11349       -4.13543
C          3.31456       -0.30283       -3.03168
C          3.14204        0.81036       -2.23146
N          2.27509        1.66784       -2.80739
C          3.81278        1.07021       -0.91562
N          3.41532        0.05145        0.07280
C          3.95941        0.25504        1.44769
H          2.39045       -0.78600       -4.97430
H          1.18295        1.55859       -4.65259
H          3.95362       -1.15341       -2.84295
H          3.49123        2.07695       -0.58671
H          4.90997        1.06424       -1.07663
C          3.46134        1.58106        2.06313
C          3.46644       -0.90497        2.33238
C          5.50798        0.23571        1.47872
H          2.35176        1.61312        2.07364
H          3.82885        1.68483        3.10760
H          3.84640        2.46106        1.51049
H          3.83367       -1.87893        1.94209
H          3.84356       -0.79390        3.37425
H          2.35730       -0.93572        2.36676
H          5.90593       -0.72787        1.09475
H          5.95079        1.06742        0.89513
H          5.86873        0.35657        2.52557
Na         4.25320       -1.90593       -0.57597
C          4.54158       -5.09370       -0.77344
C          5.21379       -6.14975       -1.36713
C          6.13015       -5.59503       -2.22328
C          5.97615       -4.22408       -2.12207
N          5.01199       -3.88965       -1.21814
C          6.75041       -3.23881       -2.93502
N          7.52557       -2.33408       -2.07386
C          8.35680       -1.34372       -2.80213
H          5.04516       -7.20702       -1.21081
H          3.74294       -5.19856       -0.05410
H          6.81625       -6.13046       -2.86912
H          7.42592       -3.82084       -3.59411
H          6.02153       -2.68049       -3.55175
C          7.47262       -0.35239       -3.58870
C          9.16469       -0.55199       -1.75865
C          9.36351       -2.02981       -3.75490
H          6.75462        0.14982       -2.90461
H          8.09805        0.42385       -4.07831
H          6.89872       -0.85852       -4.39072
H          9.78594       -1.23830       -1.14350
H          9.84419        0.17313       -2.25881
H          8.49205        0.01507       -1.08032
H          9.99690       -2.75042       -3.19363
H          8.85857       -2.56299       -4.58521
H         10.02488       -1.27412       -4.22955
