81
Fixed geometry for speciation673.xyz
Na 3.87582 3.72857 3.74164
Mg 1.42453 1.89646 -1.60838
C 2.75159 -0.62987 -0.59038
C 0.46798 -1.05909 -1.08580
O 1.49670 -0.06618 -0.96584
C 3.26656 -1.83571 -1.36393
C 0.05302 -1.72919 0.23681
H 3.53131 0.11456 -0.82123
H 2.74141 -0.85194 0.50404
H -0.46470 -0.60566 -1.42535
H 0.72555 -1.80709 -1.86233
H -0.46364 -1.00151 0.89913
H -0.66796 -2.54790 0.01146
H 0.90362 -2.18480 0.78032
H 3.39377 -1.55722 -2.42830
H 4.26023 -2.10191 -0.93796
H 2.61906 -2.72628 -1.25301
H -1.39771 1.99416 -0.67258
C -0.87756 4.05999 -0.76085
C -0.51095 2.60485 -0.46780
C -2.04197 4.69406 0.03234
H 0.00194 4.66063 -0.51615
H -1.08270 4.14482 -1.84094
H -3.01938 4.17219 -0.11230
H -1.80538 4.68490 1.11848
C -2.15033 6.14694 -0.45078
H -0.33766 2.46826 0.62265
H -3.01933 6.36168 0.20051
H -2.57631 6.15315 -1.48108
H -2.42773 7.06767 0.09688
C 6.64181 3.03755 2.41207
C 7.18727 2.46834 1.28326
C 6.11990 2.10399 0.47763
C 4.95092 2.46982 1.16286
N 5.27805 3.03456 2.33727
C 3.46378 2.35185 0.71610
N 3.06144 3.01215 -0.59903
C 3.34817 4.53164 -0.47058
H 8.24847 2.36616 1.08805
H 7.19185 3.43726 3.26116
H 6.22487 1.62993 -0.49388
H 3.23075 1.30760 0.75282
H 2.81818 2.71884 1.52324
C 4.87406 4.91226 -0.44474
C 2.85461 5.32446 -1.64146
C 2.68251 5.18197 0.77076
H 5.41518 4.48736 -1.31795
H 5.00706 6.01899 -0.48375
H 5.42385 4.67804 0.46762
H 1.77780 5.19992 -1.68808
H 3.00225 6.41886 -1.52708
H 3.50662 5.09371 -2.48854
H 1.60385 4.97448 0.80706
H 3.14650 4.85553 1.71683
H 2.81631 6.28849 0.73707
Mg 1.43585 2.06226 -1.97003
C -1.83712 0.86967 -2.94678
C -2.27320 0.34835 -4.16274
C -1.16945 0.25400 -4.95659
C -0.12865 0.68596 -4.16194
N -0.49657 1.16115 -2.96674
C 1.25189 0.77248 -4.49400
N 1.64876 2.05234 -3.94052
C 1.29794 3.19527 -4.89009
H -3.28325 0.07257 -4.45189
H -2.51631 1.03144 -2.13238
H -1.12519 -0.08286 -5.99224
H 1.44454 0.60388 -5.57057
H 1.78227 -0.01944 -3.93245
C -0.20962 3.41101 -5.25552
C 1.68897 4.42552 -4.20303
C 2.12344 3.13045 -6.21623
H -0.84529 3.59871 -4.36217
H -0.30092 4.33150 -5.88370
H -0.64536 2.61178 -5.87607
H 2.76160 4.27021 -4.05954
H 1.51883 5.36380 -4.76610
H 1.04456 4.41083 -3.31204
H 3.20958 3.27283 -6.02590
H 2.01164 2.19302 -6.78541
H 1.80484 3.93979 -6.90999
