66
speciation212.ct
Na         2.03034        0.21440        0.95581
Mg         2.81740        1.73753       -1.66015
H          3.31688        1.25234       -4.29497
C          5.07998        0.14187       -3.73207
C          4.09672        1.31548       -3.50811
C          5.73382        0.09158       -5.13252
H          5.90051        0.25136       -3.00188
H          4.54062       -0.81767       -3.58656
H          4.95686       -0.05548       -5.91352
H          6.27589        1.03871       -5.33989
C          6.74733       -1.06223       -5.24396
H          4.66717        2.25595       -3.65106
H          7.57510       -0.93798       -4.51268
H          6.26227       -2.04569       -5.06564
H          7.19668       -1.08464       -6.26092
C         -2.07175       -0.79138        0.37959
C         -2.96564        0.25328        0.40163
C         -2.24740        1.38989        0.05487
C         -0.94639        0.98831       -0.17556
N         -0.86054       -0.33901        0.04295
C          0.18222        1.88471       -0.71260
N          1.50180        1.88521       -0.02958
C          1.77419        2.88984        1.02141
H         -4.01673        0.18211        0.63785
H         -2.28922       -1.83400        0.59589
H         -2.64894        2.38505       -0.04080
H         -0.19882        2.91289       -0.86415
H          0.37624        1.49261       -1.72979
C          0.79966        2.70564        2.20673
C          3.20945        2.66462        1.54140
C          1.68992        4.32431        0.47476
H          0.89799        1.68291        2.63666
H          1.02502        3.43632        3.01131
H         -0.25138        2.85350        1.89096
H          3.94787        2.77440        0.71787
H          3.46634        3.39499        2.34117
H          3.33822        1.65381        1.98744
H          2.38236        4.44078       -0.38471
H          0.66578        4.59603        0.15711
H          1.98624        5.04830        1.26369
Mg         0.61546       -1.38274       -0.02778
C          6.27962        0.09342       -0.01198
C          6.61818       -0.96294       -0.83062
C          5.44836       -1.58733       -1.20516
C          4.44023       -0.93970       -0.64302
N          4.88517        0.14349        0.14324
C          3.01534       -1.31778       -0.83905
N          2.34611       -1.61437        0.41645
C          2.64775       -2.77005        1.25386
H          7.61421       -1.23792       -1.13927
H          6.97539        0.78734        0.43660
H          5.34161       -2.44039       -1.85887
H          2.87561       -2.13950       -1.56017
H          2.50572       -0.43161       -1.28071
C          4.07776       -2.70031        1.82793
C          1.66971       -2.75461        2.45127
C          2.42819       -4.04090        0.43254
H          4.22061       -1.74645        2.38286
H          4.26201       -3.54523        2.51920
H          4.83957       -2.77343        1.03692
H          0.61260       -2.78104        2.10693
H          1.84435       -3.63140        3.11235
H          1.80467       -1.83199        3.06066
H          1.37891       -4.06184        0.05981
H          3.10661       -4.05338       -0.44505
H          2.62239       -4.94694        1.03649
