110
speciation2397.ct
Na        11.44106       -1.92840       -8.90453
Mg         6.84512       -3.52536       -1.33398
C         11.18612       -1.14484      -11.74695
C          9.11882       -1.24036      -10.53231
O         10.43311       -1.74179      -10.69897
C         11.21884        0.38733      -11.76670
C          8.17594       -1.73878      -11.62547
H         12.23292       -1.49123      -11.61656
H         10.86096       -1.54311      -12.73262
H          8.72993       -1.63139       -9.56913
H          9.09063       -0.13852      -10.42878
H          8.15277       -2.84958      -11.63532
H          7.15048       -1.36207      -11.42613
H          8.49636       -1.36971      -12.62091
H         11.52493        0.78102      -10.77571
H         11.95197        0.72421      -12.53013
H         10.23251        0.80522      -12.05794
H          8.64831       -4.05325       -3.30791
C          9.06158       -5.87947       -2.30335
C          8.64769       -4.40791       -2.25791
C          8.01969       -6.75630       -2.99590
H         10.02759       -5.95799       -2.85836
H          9.22564       -6.24054       -1.26735
H          7.06374       -6.68407       -2.43655
H          7.85637       -6.41265       -4.04179
C          8.47747       -8.21507       -3.02017
H          9.46314       -3.88288       -1.72789
H          9.40605       -8.32307       -3.62222
H          8.67490       -8.57425       -1.98724
H          7.68667       -8.85037       -3.47054
C         14.52227       -1.18532       -8.41107
C         15.39541       -1.31247       -7.34563
C         14.68975       -1.91614       -6.32281
C         13.41883       -2.13694       -6.81962
N         13.32240       -1.69430       -8.07950
C         12.27130       -2.77387       -6.09300
N         11.09414       -2.91681       -6.98028
C         10.86854       -4.30804       -7.47709
H         16.42936       -0.99495       -7.31436
H         14.75073       -0.74100       -9.37017
H         15.05727       -2.17319       -5.33968
H         12.00464       -2.13629       -5.22690
H         12.60926       -3.75367       -5.69134
C         10.60085       -5.30841       -6.31556
C          9.63504       -4.26357       -8.38798
C         12.06663       -4.81645       -8.33226
H         10.40263       -4.78614       -5.35780
H          9.74123       -5.98099       -6.52913
H         11.47212       -5.98329       -6.15522
H          9.84034       -3.64526       -9.27654
H          9.37428       -5.27786       -8.75993
H          8.76466       -3.84155       -7.84372
H         12.31297       -4.11046       -9.15167
H         12.98082       -4.94965       -7.71481
H         11.83350       -5.80267       -8.79011
Na         9.27303       -1.75569       -6.19507
Mg         8.29318       -0.46047       -2.28674
C          9.61829        1.74691       -3.32936
C         11.02114       -0.06030       -2.90056
O          9.87295        0.65241       -2.45826
C         10.69820        2.84539       -3.25596
C         11.19075       -1.35802       -2.14049
H          9.49556        1.40470       -4.37954
H          8.66371        2.21901       -3.01854
H         10.97922       -0.29449       -3.98899
H         11.93582        0.52323       -2.66505
H         10.36212       -2.03405       -2.40069
H         12.15204       -1.83344       -2.43862
H         11.21250       -1.17013       -1.04613
H         11.69514        2.47755       -3.57618
H         10.43645        3.67323       -3.94706
H         10.77890        3.24930       -2.22485
H          6.42269       -5.71078        0.33473
C          4.65742       -4.61618        0.91891
C          6.13915       -4.64666        0.48115
C          3.72889       -5.24521       -0.13022
H          4.54100       -5.18558        1.87141
H          4.35347       -3.56530        1.11287
H          3.83742       -4.70273       -1.08882
H          4.00637       -6.30966       -0.29415
C          2.26030       -5.18526        0.30160
H          6.74210       -4.26434        1.33384
H          2.09067       -5.79302        1.21658
H          1.95392       -4.13631        0.50197
H          1.61597       -5.58782       -0.50967
C          7.22713        0.68945       -5.99646
C          6.06826        1.22869       -5.48492
C          5.61177        0.33416       -4.55857
C          6.52277       -0.68605       -4.48830
N          7.51386       -0.50026       -5.40955
C          6.42297       -1.88040       -3.55917
N          6.67269       -1.60203       -2.11080
C          5.77109       -0.81048       -1.27286
H          5.58854        2.15516       -5.77170
H          7.81831        1.14230       -6.77960
H          4.68957        0.43136       -4.01665
H          5.47885       -2.42188       -3.71517
H          7.23355       -2.55151       -3.88484
C          4.37416       -1.44460       -1.34782
C          6.39519       -0.89826        0.12853
C          5.77367        0.71124       -1.61616
H          4.46943       -2.53583       -1.18374
H          3.65695       -1.01929       -0.62337
H          3.95854       -1.31425       -2.37235
H          7.41264       -0.43726        0.09583
H          5.79354       -0.33909        0.87544
H          6.51828       -1.94312        0.46298
H          6.67451        0.99605       -2.20010
H          4.83490        1.05548       -2.08210
H          5.81381        1.35475       -0.71173
