95
speciation1521.ct
Na         0.92926        0.05707        0.04169
Mg        -2.40390        1.93858        0.40076
C         -2.71955        3.85491        2.68025
C         -0.63758        2.73188        2.55552
O         -2.00332        2.71720        2.19077
C         -2.09805        5.22853        2.37875
C         -0.44475        2.47061        4.06152
H         -3.72346        3.83248        2.22217
H         -2.89513        3.75051        3.77466
H         -0.12879        1.94255        1.97275
H         -0.12023        3.64122        2.21674
H         -0.99609        1.56897        4.39312
H          0.62155        2.31142        4.30013
H         -0.80098        3.33337        4.65950
H         -1.92542        5.34864        1.29309
H         -2.78614        6.02624        2.72565
H         -1.14610        5.38176        2.93010
H         -1.87187        4.26930       -0.73284
C         -1.41834        3.11999       -2.49894
C         -1.44558        3.27581       -0.97067
C         -2.83174        3.11787       -3.08116
H         -0.83978        3.96696       -2.92947
H         -0.89279        2.19379       -2.78128
H         -3.38173        2.25787       -2.66583
H         -3.36146        4.05345       -2.80075
C         -2.81572        2.99430       -4.60295
H         -0.39196        3.24383       -0.61732
H         -2.31706        3.87560       -5.05863
H         -2.28537        2.06977       -4.91653
H         -3.86042        2.94496       -4.97874
C         -4.01984       -2.94667       -2.36525
C         -4.76696       -1.79828       -2.50274
C         -3.94944       -0.74890       -2.14291
C         -2.73157       -1.29473       -1.78897
N         -2.77431       -2.63952       -1.93946
C         -1.48939       -0.54075       -1.33324
N         -1.44074        0.05707        0.04169
C         -1.70549       -0.97197        1.14421
H         -5.79256       -1.73622       -2.84362
H         -4.37394       -3.95126       -2.56598
H         -4.22444        0.26634       -2.17898
H         -1.25494        0.22100       -2.08475
H         -0.64160       -1.25708       -1.41649
C         -0.69946       -2.14538        1.08633
C         -1.52276       -0.33687        2.52565
C         -3.14254       -1.55499        1.18911
H          0.33050       -1.75484        1.15898
H         -0.84455       -2.83616        1.94397
H         -0.80519       -2.75091        0.16823
H         -2.27146        0.46155        2.67624
H         -1.70748       -1.07153        3.34116
H         -0.48377        0.00158        2.66907
H         -3.88172       -0.75187        1.31108
H         -3.42239       -2.20051        0.35305
H         -3.25006       -2.23587        2.06450
Na         4.01526        1.54393       -1.32034
Mg        -1.39024       -3.95742       -1.60407
H         -4.88914        3.04962        0.30182
C         -5.84641        1.20159        0.83241
C         -4.67351        1.97105        0.16713
C         -6.00873        1.50239        2.32640
H         -6.79093        1.50406        0.32431
H         -5.73636        0.11023        0.66785
H         -5.07762        1.21426        2.85780
H         -6.17601        2.59507        2.46533
C         -7.19158        0.74694        2.94511
H         -4.79118        1.78844       -0.90544
H         -8.14934        1.04504        2.46159
H         -7.05520       -0.35236        2.83557
H         -7.26280        0.98541        4.02855
C          2.78512        3.36350        3.33769
C          2.47058        3.78867        2.06818
C          2.76364        2.75389        1.19326
C          3.25419        1.73569        1.90709
N          3.30416        2.06392        3.27947
C          3.73600        0.40106        1.41401
N          3.29926        0.05707        0.04169
C          3.83235       -1.25185       -0.44192
H          2.05044        4.75489        1.82249
H          2.64576        3.92652        4.25198
H          2.63082        2.78201        0.12197
H          3.32872       -0.34221        2.12273
H          4.83902        0.43254        1.50768
C          3.41438       -2.42683        0.47307
C          3.25147       -1.51366       -1.84187
C          5.37898       -1.23746       -0.56919
H          2.31408       -2.48287        0.54944
H          3.77317       -3.39166        0.05518
H          3.84790       -2.34556        1.48943
H          3.54943       -0.70584       -2.54046
H          3.62857       -2.48041       -2.25152
H          2.14208       -1.55506       -1.80623
H          5.71045       -0.46663       -1.29727
H          5.88902       -1.05276        0.39572
H          5.74723       -2.22713       -0.92257
