110
speciation2188.ct
Na         1.30679        1.44468        0.43329
Mg         3.50501       -0.64586       -1.76726
C         -0.35205        1.62726        3.32481
C          1.56137        3.00038        3.59447
O          0.78128        2.21627        2.66491
C         -1.34724        2.65536        3.91453
C          1.92027        2.35432        4.97550
H         -0.91549        1.02704        2.59469
H         -0.04985        0.89269        4.10461
H          2.52034        3.27495        3.11686
H          1.03385        3.95808        3.79344
H          2.58915        1.47703        4.86849
H          2.44653        3.10123        5.61120
H          1.03810        2.05374        5.58400
H         -1.72132        3.33431        3.12605
H         -2.22030        2.13411        4.36414
H         -0.90061        3.26807        4.72639
H          6.16275       -0.21017       -1.13143
C          6.79806       -0.80821       -3.05856
C          5.75499       -0.85022       -1.93207
C          6.72160        0.45225       -3.92234
H          7.81028       -0.90430       -2.60513
H          6.67275       -1.69502       -3.71212
H          5.70896        0.53431       -4.36849
H          6.91415        1.36317       -3.31622
C          7.73928        0.35696       -5.06044
H          5.80477       -1.90219       -1.60054
H          8.77242        0.32136       -4.65371
H          7.55966       -0.56357       -5.65965
H          7.64462        1.23314       -5.73389
C         -1.62039        0.24568        0.15461
C         -2.10135       -1.04318        0.02674
C         -1.00017       -1.87628       -0.03610
C          0.10725       -1.05604        0.06341
N         -0.27708        0.22676        0.18170
C          1.54952       -1.52731        0.07267
N          2.53495       -0.41136        0.10829
C          3.51645       -0.48615        1.21483
H         -3.14016       -1.34428        0.00068
H         -2.21709        1.14132        0.26235
H         -1.00751       -2.95339       -0.12768
H          1.73965       -2.10874       -0.84511
H          1.65344       -2.24248        0.90790
C          4.36320       -1.78398        1.17633
C          4.42263        0.74741        1.08928
C          2.82688       -0.43961        2.58418
H          4.90963       -1.88869        0.24523
H          5.10922       -1.78936        1.99913
H          3.75076       -2.70255        1.28977
H          3.83707        1.67477        1.25199
H          5.25990        0.71178        1.81755
H          4.83112        0.83324        0.07195
H          2.19097        0.44016        2.62091
H          2.19241       -1.32512        2.77982
H          3.57649       -0.37432        3.39907
Na         0.49790        7.21405        0.69544
Mg         0.33749        6.48707       -2.63191
C          1.42926       -1.02611       -3.64566
C          3.59882       -1.62647       -4.41583
O          2.83376       -0.77482       -3.58426
C          0.96774       -2.47641       -3.65369
C          3.58464       -1.19981       -5.88057
H          0.98481       -0.60742       -2.71911
H          0.98483       -0.47908       -4.50964
H          4.62647       -1.54307       -4.10493
H          3.37123       -2.69825       -4.27696
H          3.96474       -0.16106       -5.99016
H          4.25449       -1.87721       -6.45399
H          2.56296       -1.26675       -6.30228
H          1.43448       -3.02639       -2.81731
H         -0.13583       -2.48911       -3.53500
H          1.21423       -2.96268       -4.61825
H         -0.03848        8.31841       -4.38559
C         -0.29683        6.58506       -5.67988
C          0.37310        7.29392       -4.50523
C         -1.79966        6.37977       -5.47890
H         -0.13182        7.19943       -6.59317
H          0.19432        5.59865       -5.82278
H         -1.97566        5.74885       -4.58806
H         -2.30712        7.35685       -5.32700
C         -2.40814        5.68363       -6.69565
H          1.45304        7.39136       -4.74540
H         -2.29858        6.32135       -7.59905
H         -1.90263        4.71049       -6.87769
H         -3.48788        5.49401       -6.52215
C          1.62270        2.30039       -2.89128
C          1.77156        3.34028       -3.77944
C          1.80968        4.46698       -3.02234
C          1.66806        4.03723       -1.70202
N          1.56780        2.70311       -1.59540
C          1.54799        4.94988       -0.59534
N          0.30276        5.69999       -0.80451
C         -1.01759        5.07457       -0.68710
H          1.81963        3.28131       -4.86472
H          1.52450        1.32278       -3.21389
H          1.93331        5.47526       -3.38554
H          1.54967        4.41706        0.37017
H          2.40597        5.64416       -0.62459
C         -1.11311        4.23792        0.58315
C         -2.00296        6.25940       -0.66456
C         -1.35133        4.23588       -1.94812
H         -0.78804        4.84732        1.45240
H         -2.13615        3.85340        0.74412
H         -0.43102        3.36286        0.50451
H         -1.90905        6.84989       -1.60773
H         -3.05036        5.91265       -0.56939
H         -1.77280        6.94135        0.17947
H         -1.02061        4.77444       -2.86067
H         -0.85818        3.24766       -1.94181
H         -2.44113        4.05128       -2.03912
