110
speciation2010.ct
Na         1.38484        1.87761        0.46931
Mg         3.37318       -0.32141       -1.65610
C          0.04766        3.25560        2.88300
C          2.39180        3.68223        2.83943
O          1.32699        2.84504        2.40391
C         -0.30386        4.73650        2.66734
C          2.71471        3.49709        4.32182
H         -0.71347        2.64719        2.35516
H         -0.06790        2.98551        3.95563
H          3.30581        3.43668        2.29303
H          2.23150        4.74273        2.57588
H          2.99842        2.44325        4.52847
H          3.56753        4.15602        4.58911
H          1.85218        3.77873        4.95871
H         -0.16628        5.02133        1.60765
H         -1.35856        4.91684        2.95993
H          0.31913        5.39663        3.30472
H          5.73879       -0.90954       -3.05134
C          6.34292       -2.37331       -1.58187
C          5.55456       -1.08171       -1.96976
C          5.93566       -3.72604       -2.20570
H          7.40154       -2.20935       -1.89852
H          6.39885       -2.50203       -0.48177
H          5.99471       -3.69582       -3.31263
H          6.71922       -4.44957       -1.87665
C          4.56873       -4.30366       -1.79867
H          6.11251       -0.27053       -1.44550
H          4.08343       -3.81352       -0.92684
H          3.86918       -4.15225       -2.63230
H          4.64517       -5.41431       -1.67101
C         -1.67994        0.90109        0.17424
C         -2.24061       -0.33311       -0.02679
C         -1.20746       -1.24000       -0.03265
C         -0.04299       -0.51923        0.14090
N         -0.34002        0.79026        0.27072
C          1.36225       -1.11419        0.13026
N          2.46727       -0.10371        0.22147
C          3.31604       -0.27836        1.43052
H         -3.29649       -0.54738       -0.16775
H         -2.23590        1.83010        0.21068
H         -1.30076       -2.29428       -0.17365
H          1.48620       -1.66608       -0.82113
H          1.39982       -1.89768        0.90771
C          4.10247       -1.60159        1.43176
C          4.33524        0.85988        1.42399
C          2.45923       -0.22980        2.72462
H          4.77297       -1.62804        0.56676
H          4.72223       -1.67566        2.35234
H          3.45247       -2.49770        1.39354
H          3.81247        1.79828        1.22961
H          4.89822        0.90562        2.38112
H          5.05680        0.74273        0.59051
H          1.77994        0.62820        2.72616
H          1.82044       -1.12922        2.84722
H          3.10117       -0.18644        3.62838
Na         4.07962       -3.01053       -6.58474
Mg         1.34846       -4.14778       -5.51468
C          2.93912        3.66487       -1.47658
C          0.67355        4.30562       -1.32864
O          1.61210        3.25336       -1.17092
C          3.42289        4.95276       -0.78868
C         -0.70738        3.80310       -0.97955
H          3.60645        2.84373       -1.14811
H          3.07121        3.74950       -2.57921
H          0.87875        5.15743       -0.64576
H          0.64489        4.64888       -2.38813
H         -0.69309        3.45965        0.06894
H         -1.45766        4.61537       -1.07425
H         -0.98970        2.96581       -1.64850
H          3.22008        4.91066        0.29861
H          4.51534        5.07064       -0.94738
H          2.93336        5.85083       -1.22496
H         -0.40037       -5.71566       -5.48715
C          0.16115       -6.15109       -3.44319
C          0.52003       -5.92024       -4.90604
C         -0.37389       -4.87144       -2.80602
H         -0.61863       -6.94633       -3.41226
H          1.04500       -6.50505       -2.86909
H          0.42562       -4.09568       -2.79327
H         -1.23116       -4.49265       -3.40104
C         -0.84571       -5.13185       -1.37892
H          1.00070       -6.83904       -5.31541
H         -1.61845       -5.92778       -1.35612
H          0.00375       -5.41500       -0.72125
H         -1.31204       -4.21948       -0.98507
C          0.61725        0.37338       -2.70646
C         -0.38082        0.00940       -3.57471
C          0.19019       -0.86572       -4.43239
C          1.52629       -0.93709       -4.12735
N          1.76766       -0.27354       -2.97389
C          2.57371       -1.62652       -4.92054
N          2.08282       -2.42311       -6.06410
C          1.58572       -1.87672       -7.38603
H         -1.42113        0.31597       -3.58942
H          0.46805        1.04385       -1.89051
H         -0.33811       -1.36796       -5.19170
H          3.30381       -0.86156       -5.26351
H          3.12918       -2.30791       -4.24197
C          2.59890       -0.85760       -7.93741
C          1.39057       -3.12201       -8.27855
C          0.19644       -1.16656       -7.47743
H          3.62377       -1.26737       -7.98197
H          2.30806       -0.49561       -8.94716
H          2.60631        0.03403       -7.26913
H          0.60061       -3.76252       -7.81126
H          1.02289       -2.86349       -9.29511
H          2.30107       -3.74339       -8.36145
H         -0.65136       -1.82799       -7.19066
H          0.15875       -0.18850       -6.95411
H         -0.02434       -0.91055       -8.54133
