110
speciation2025.ct
Na         0.85730       -0.36195        0.09992
Mg        -1.85799        1.25783       -2.05210
C         -0.95741       -0.23911        3.02699
C          0.50258        1.56938        2.62750
O          0.07156        0.30601        2.17270
C         -2.21764        0.63916        3.25803
C          1.18149        1.55451        4.01320
H         -1.28226       -1.20776        2.63157
H         -0.53885       -0.52848        4.01430
H          1.23310        1.97194        1.89817
H         -0.32866        2.31501        2.60432
H          2.10244        0.93643        3.98643
H          1.44874        2.58808        4.30950
H          0.51764        1.17075        4.81435
H         -2.73816        0.86436        2.30268
H         -2.93169        0.11051        3.92544
H         -1.98556        1.59026        3.78446
H         -3.28734       -0.93242       -2.48449
C         -4.75152        0.63312       -2.66631
C         -3.50914        0.04746       -2.01559
C         -4.54813        0.86348       -4.16570
H         -5.58661       -0.08417       -2.51146
H         -5.00386        1.59494       -2.17028
H         -3.73953        1.60948       -4.32302
H         -4.25827       -0.08873       -4.66277
C         -5.83811        1.37097       -4.80484
H         -3.69806       -0.10007       -0.93284
H         -6.64328        0.61251       -4.69211
H         -6.16199        2.31744       -4.32220
H         -5.67615        1.55641       -5.88704
C         -2.58615        4.22429       -2.43495
C         -1.78418        5.34550       -2.29451
C         -0.53113        4.89418       -1.93883
C         -0.60980        3.51424       -1.88523
N         -1.85461        3.12371       -2.17747
C          0.49171        2.52595       -1.55456
N          0.09493        1.09121       -1.77745
C          0.49693        0.59884       -3.14681
H         -2.09606        6.37015       -2.44169
H         -3.62864        4.20403       -2.71217
H          0.33971        5.50547       -1.75421
H          0.74834        2.68315       -0.49402
H          1.37954        2.81482       -2.14519
C          2.02345        0.55156       -3.30188
C         -0.02169       -0.82989       -3.33139
C         -0.09365        1.44057       -4.30996
H          2.39286        0.04384       -2.41351
H          2.32444       -0.00877       -4.21713
H          2.49745        1.54842       -3.38772
H         -1.12905       -0.83780       -3.30295
H          0.28042       -1.25236       -4.31092
H          0.39502       -1.48370       -2.54344
H         -1.20206        1.46215       -4.26882
H          0.28491        2.48319       -4.31573
H          0.18935        0.99802       -5.29458
Na         4.17991       -0.68586       -1.83794
Mg         5.91765        1.87866        2.76271
C         -1.33918       -2.49502       -0.75655
C          0.24821       -3.66718        0.50972
O          0.00621       -2.48440       -0.26585
C         -2.46049       -2.69774        0.27713
C          0.32324       -4.95181       -0.33389
H         -1.52063       -1.51092       -1.20113
H         -1.45098       -3.23303       -1.58384
H          1.18442       -3.61986        1.03269
H         -0.43697       -3.76595        1.36722
H          1.10635       -4.86708       -1.11790
H          0.58276       -5.80660        0.32764
H         -0.64791       -5.19171       -0.81230
H         -2.39981       -1.91404        1.03992
H         -3.45102       -2.60761       -0.20974
H         -2.44237       -3.70286        0.74740
H          5.23315        1.71408        5.30515
C          7.16844        2.70547        5.29974
C          6.21056        1.64407        4.78339
C          6.59429        4.09643        5.03086
H          7.32053        2.55818        6.39181
H          8.14676        2.59474        4.78297
H          6.44870        4.23096        3.93643
H          5.60976        4.19521        5.53817
C          7.52427        5.18766        5.54779
H          6.63967        0.63424        4.96193
H          7.67084        5.08056        6.64381
H          8.50953        5.12900        5.03835
H          7.07407        6.18176        5.34370
C          6.98815        2.37999        0.06618
C          6.67794        2.26544       -1.27225
C          5.36729        1.84334       -1.34100
C          4.93220        1.71433       -0.03685
N          5.92267        2.04441        0.81721
C          3.57987        1.22414        0.39266
N          3.33834       -0.20845        0.09302
C          4.22031       -1.15528        0.86996
H          7.34335        2.44360       -2.10612
H          7.95372        2.65251        0.47150
H          4.80585        1.63456       -2.24027
H          2.83249        1.83801       -0.14057
H          3.42612        1.42305        1.47059
C          4.06118       -0.99184        2.39900
C          3.80402       -2.55125        0.47338
C          5.73400       -1.10114        0.50329
H          2.99671       -1.09743        2.69559
H          4.65839       -1.76040        2.93675
H          4.43707       -0.00875        2.74808
H          3.87915       -2.71401       -0.62278
H          4.38727       -3.33630        1.00405
H          2.78201       -2.59796        0.76612
H          5.90616       -1.17975       -0.58921
H          6.26282       -0.23159        0.89639
H          6.27792       -1.94596        0.97750
