96
speciation1622.ct
Na         0.70693        1.18145       -0.38368
Mg         3.24017       -0.02323       -1.74326
C          0.88432       -1.10848       -3.22959
C          2.29452        0.16167       -4.62938
O          1.89319       -0.09844       -3.28931
C          1.13746       -2.42242       -3.99333
C          1.18325        0.73017       -5.52485
H          0.78035       -1.37984       -2.19341
H         -0.10808       -0.68832       -3.50032
H          3.11120        0.90781       -4.60948
H          2.66805       -0.75456       -5.11756
H          0.82585        1.70683       -5.14448
H          1.58447        0.86553       -6.55310
H          0.32529        0.03061       -5.61249
H          2.12093       -2.84891       -3.75759
H          0.36120       -3.16548       -3.71196
H          1.08070       -2.28419       -5.09013
H          3.24786        2.85665       -1.48675
C          5.14324        3.16433       -2.46799
C          4.16403        2.25780       -1.67125
C          4.75599        3.57635       -3.88501
H          5.31676        4.09917       -1.88434
H          6.13904        2.67968       -2.52103
H          5.60939        4.17163       -4.28117
H          4.62500        2.69369       -4.54238
C          3.52321        4.47020       -3.91490
H          4.75475        2.23820       -0.75376
H          2.61473        3.88744       -3.66358
H          3.63930        5.31011       -3.19485
H          3.41265        4.90005       -4.93250
C         -2.16264       -0.25551       -0.34012
C         -2.47039       -1.58091       -0.08496
C         -1.28037       -2.23123        0.17795
C         -0.28507       -1.28261        0.06677
N         -0.82377       -0.09000       -0.24692
C          1.21530       -1.53395        0.26318
N          2.08009       -0.30409        0.13440
C          2.57813        0.12987        1.48208
H         -3.45911       -2.01972       -0.08746
H         -2.85130        0.52837       -0.59678
H         -1.15675       -3.27688        0.42662
H          1.55803       -2.30861       -0.43168
H          1.30220       -2.02100        1.25202
C          3.56114       -0.90032        2.09552
C          3.34020        1.42559        1.31757
C          1.41720        0.42666        2.47613
H          4.37690       -1.12356        1.37490
H          4.01490       -0.48992        3.02374
H          3.08140       -1.85434        2.37836
H          2.72171        2.19121        0.79611
H          3.67340        1.84317        2.28980
H          4.24987        1.14795        0.78187
H          0.72533        1.19258        2.06485
H          0.82353       -0.47210        2.73653
H          1.82243        0.82254        3.43456
Mg         6.24291       -1.77197       -0.50599
C          9.10512       -1.82290       -0.01589
C          8.18274        0.37923        0.16117
O          7.93184       -1.02732        0.17309
C          9.83723       -2.04178        1.29562
C          9.00869        0.93996       -1.02312
H          8.83300       -2.83579       -0.37819
H          9.78125       -1.44019       -0.80318
H          7.19845        0.88571        0.15987
H          8.65552        0.68549        1.11528
H          8.60787        0.62779       -2.00142
H          9.00668        2.04902       -0.98323
H         10.07472        0.63798       -0.98381
H         10.06832       -1.07384        1.77997
H         10.78784       -2.58306        1.10067
H          9.20119       -2.65593        1.96651
C          5.87057       -4.60972        0.60602
C          5.02583       -5.64209        0.25379
C          4.27489       -5.19380       -0.80430
C          4.67636       -3.89780       -1.05224
N          5.64729       -3.55218       -0.19604
C          4.15263       -2.93565       -2.07161
N          4.78247       -1.59680       -1.96815
C          5.82451       -1.31182       -3.00369
H          4.97291       -6.62425        0.71141
H          6.60128       -4.62381        1.41281
H          3.49962       -5.73196       -1.34118
H          3.08953       -2.83336       -1.84983
H          4.27582       -3.39130       -3.07406
C          5.46809       -1.44926       -4.49960
C          6.12615        0.14421       -2.78927
C          7.07071       -2.20490       -2.82522
H          4.68137       -0.77117       -4.80480
H          6.35254       -1.12284       -5.09963
H          5.24799       -2.48658       -4.81070
H          6.28256        0.35244       -1.71839
H          6.94439        0.53271       -3.41624
H          5.20448        0.65668       -3.10711
H          7.39245       -2.30699       -1.80881
H          6.86990       -3.23909       -3.17066
H          7.93597       -1.79596       -3.38635
