96
speciation1011.ct
Na         0.78953        2.08151       -3.57941
Mg        -0.08984       -1.33437        4.92889
C          1.60206        5.08299       -3.01652
C         -0.72172        4.62091       -2.62410
O          0.53521        4.14031       -3.08711
C          1.83134        5.67122       -1.61669
C         -1.27559        5.81043       -3.41068
H          2.53074        4.54495       -3.29697
H          1.48007        5.89124       -3.77172
H         -1.45290        3.79178       -2.73548
H         -0.68532        4.84183       -1.53564
H         -1.39595        5.55786       -4.48683
H         -2.27041        6.09910       -3.00520
H         -0.62185        6.70920       -3.32417
H          1.96233        4.85526       -0.87617
H          2.74258        6.30534       -1.62200
H          0.98591        6.32172       -1.30797
H          0.36078       -2.86272        7.05960
C         -0.43376       -1.07056        8.01181
C          0.39541       -1.76251        6.92440
C         -1.90922       -1.46853        7.94712
H         -0.01925       -1.35738        9.00381
H         -0.34082        0.03103        7.89638
H         -2.33618       -1.15986        6.96937
H         -2.00361       -2.57177        8.05052
C         -2.70404       -0.80603        9.07435
H          1.44802       -1.42577        7.03558
H         -2.30717       -1.11721       10.06502
H         -2.64768        0.30034        8.99313
H         -3.76902       -1.11208        9.01028
C         -1.00259       -3.68680       -1.29441
C         -0.33699       -4.33768       -2.31209
C          0.21215       -3.36211       -3.11161
C         -0.13257       -2.14542       -2.55033
N         -0.88207       -2.35228       -1.43246
C          0.23968       -0.80804       -3.16983
N          1.04975        0.11414       -2.34826
C          2.44692       -0.31138       -1.99579
H         -0.27414       -5.40656       -2.46620
H         -1.56698       -4.16442       -0.50584
H          0.79117       -3.51859       -4.01267
H         -0.71406       -0.29177       -3.40993
H          0.74660       -0.97785       -4.14259
C          3.31655       -0.55298       -3.24828
C          3.07519        0.81754       -1.16280
C          2.48649       -1.59133       -1.11929
H          3.33024        0.34624       -3.89793
H          4.36167       -0.79278       -2.95265
H          2.94297       -1.41895       -3.83372
H          2.48070        0.98811       -0.23719
H          4.11350        0.55521       -0.85817
H          3.10719        1.76316       -1.74324
H          1.84229       -1.48365       -0.22364
H          2.18593       -2.49770       -1.67067
H          3.52358       -1.80337       -0.78121
Mg        -1.77958       -1.03559       -0.24044
C          0.18717        1.34504       -6.40207
C          1.76179        3.14175       -6.41600
O          0.75298        2.43854       -5.69421
C          1.19957        0.31859       -6.93002
C          1.21780        3.87542       -7.65809
H         -0.47577        0.81585       -5.68752
H         -0.48551        1.70059       -7.21082
H          2.18961        3.92103       -5.75415
H          2.61107        2.48318       -6.68971
H          0.47340        4.64488       -7.36548
H          2.05223        4.37925       -8.19294
H          0.74873        3.17720       -8.38247
H          1.85609       -0.03098       -6.10812
H          0.65578       -0.54802       -7.35736
H          1.82002        0.74262       -7.74789
C         -3.37212        1.30845        0.42601
C         -3.80433        2.16207        1.41635
C         -3.35394        1.64125        2.60707
C         -2.65938        0.48881        2.29432
N         -2.67708        0.28110        0.95158
C         -1.97894       -0.36151        3.33793
N         -0.54287       -0.61435        3.13823
C          0.43000        0.50889        3.10658
H         -4.36669        3.07631        1.28845
H         -3.53386        1.44585       -0.63552
H         -3.49619        2.06655        3.59157
H         -2.13587        0.07459        4.34779
H         -2.48428       -1.34844        3.33981
C          0.44072        1.26814        4.44864
C          1.81547       -0.12456        2.89260
C          0.18346        1.49621        1.94932
H          0.68351        0.58587        5.28919
H          1.21215        2.06929        4.43401
H         -0.54065        1.74095        4.64749
H          1.83513       -0.69092        1.93745
H          2.61337        0.64915        2.84962
H          2.06014       -0.83522        3.71148
H          0.13360        0.96295        0.97657
H         -0.73266        2.09114        2.10066
H          1.01108        2.23869        1.89765
