110
speciation2183.ct
Na         4.12623       -2.08395        0.80722
Mg         8.13740        2.11940        2.21120
C          6.23925       -4.43654        1.48192
C          4.07799       -5.20718        1.29183
O          4.87958       -4.09745        1.67937
C          6.67960       -4.37398        0.01523
C          2.60207       -4.93635        1.50994
H          6.81149       -3.75522        2.09238
H          6.50561       -5.42387        1.92469
H          4.20874       -5.45394        0.21556
H          4.33032       -6.09636        1.91519
H          2.26485       -4.11041        0.85401
H          2.02917       -5.85295        1.24516
H          2.40654       -4.68606        2.57229
H          6.34430       -3.42799       -0.45694
H          7.78645       -4.43878       -0.04250
H          6.27164       -5.23501       -0.55504
H          6.36183        0.03952        2.69727
C          8.03427       -1.09786        2.12370
C          7.23157        0.19197        2.03022
C          8.49559       -1.43110        3.55936
H          7.33634       -1.86044        1.77556
H          8.88610       -1.07993        1.42380
H          9.20653       -0.65197        3.90084
H          7.62547       -1.44552        4.25328
C          9.18379       -2.80138        3.64246
H          6.80783        0.27455        1.00895
H          8.49195       -3.62768        3.39884
H         10.04983       -2.84889        2.94789
H          9.54614       -2.98196        4.67770
C          3.21076        3.32184       -2.68343
C          2.41635        2.68982       -3.61539
C          2.44347        1.34667       -3.31238
C          3.25953        1.22354       -2.19952
N          3.74204        2.42405       -1.82079
C          3.57702       -0.07411       -1.53063
N          3.35663       -0.02705       -0.08372
C          2.02685        0.07606        0.51694
H          1.87574        3.15461       -4.43047
H          3.40141        4.38344       -2.63072
H          1.93628        0.54757       -3.83601
H          4.66644       -0.25032       -1.67560
H          3.04734       -0.93089       -1.99340
C          1.07446       -1.00220       -0.04217
C          2.19182       -0.18602        2.02785
C          1.45040        1.49345        0.34533
H          1.54558       -2.00214        0.06379
H          0.11533       -1.01082        0.51924
H          0.85360       -0.82716       -1.11434
H          2.86371        0.56418        2.48067
H          1.21976       -0.13645        2.56322
H          2.63037       -1.18710        2.21961
H          2.18158        2.23581        0.73785
H          1.24372        1.72787       -0.71454
H          0.49855        1.61177        0.90425
Na         5.13991        2.93006        0.02496
Mg         8.95531        7.27740        0.02921
C         10.45279        3.15349        3.52262
C         10.95259        1.39735        1.99974
O          9.99042        1.95453        2.89977
C         10.98560        4.24516        2.57915
C         12.21001        0.84224        2.70371
H          9.60275        3.58859        4.07253
H         11.20246        2.92329        4.30933
H         10.49481        0.55347        1.45121
H         11.23881        2.11849        1.21053
H         11.96512       -0.06047        3.30234
H         12.96738        0.55874        1.94033
H         12.69839        1.58766        3.36469
H         10.23579        4.48097        1.79859
H         11.20718        5.16193        3.16324
H         11.94080        3.94854        2.09691
H         10.61777        9.21711        0.57821
C          9.25597        9.17562        2.27231
C          9.53274        9.10698        0.77374
C         10.00070        8.06527        3.01627
H          9.58562       10.16759        2.65266
H          8.16195        9.06998        2.43754
H          9.67901        7.07436        2.62810
H         11.09564        8.17561        2.85387
C          9.71890        8.12391        4.51493
H          8.98639        9.91945        0.25435
H         10.03527        9.10542        4.92976
H          8.63468        7.97877        4.70927
H         10.28398        7.32099        5.03392
C          8.96992        4.96203       -1.73156
C          8.57038        3.64915       -1.86023
C          7.86614        3.33796       -0.71613
C          7.85508        4.48068        0.05981
N          8.53979        5.46611       -0.56251
C          7.19729        4.67080        1.39516
N          6.53779        3.43607        1.87071
C          5.76667        3.64568        3.14351
H          8.77743        2.99317       -2.69455
H          9.54896        5.52428       -2.45373
H          7.41476        2.38505       -0.48703
H          6.46081        5.48382        1.25050
H          7.97402        4.99579        2.11265
C          4.58552        4.61609        2.94182
C          5.19615        2.30088        3.60119
C          6.65080        4.16383        4.30833
H          3.93319        4.27362        2.11159
H          3.97352        4.67537        3.86912
H          4.92752        5.65068        2.74167
H          6.01699        1.65258        3.95589
H          4.51529        2.42145        4.47191
H          4.64567        1.82337        2.76968
H          7.46598        3.44667        4.52563
H          7.08442        5.16323        4.10540
H          6.04765        4.26276        5.23771
