83
speciation304.ct
Na         0.48280        1.27681       -0.29361
Mg        -5.67097        1.57296        2.16305
C          2.09236        1.61115       -3.15593
C          0.13312        2.92991       -3.07747
O          0.82752        1.80727       -2.51190
C          3.01286        2.83976       -3.30055
C         -0.34148        2.69268       -4.52821
H          2.65604        0.87730       -2.58047
H          1.94414        1.13317       -4.14993
H         -0.76821        3.14305       -2.47413
H          0.71793        3.86686       -3.00967
H         -1.03440        1.82900       -4.59321
H         -0.87843        3.59317       -4.89670
H          0.50569        2.51508       -5.22224
H          3.19333        3.31610       -2.31891
H          3.98654        2.51951       -3.72888
H          2.60383        3.59234       -4.00614
C         -5.13282       -1.27256        2.67139
C         -4.14184       -2.22800        2.63463
C         -2.99372       -1.58790        2.21470
C         -3.33538       -0.25854        2.00161
N         -4.63857       -0.07585        2.29903
C         -2.44708        0.86967        1.49093
N         -1.85544        0.66174        0.12647
C         -2.83682        0.51415       -0.99008
H         -4.24888       -3.27954        2.87632
H         -6.16571       -1.44278        2.94881
H         -2.05236       -2.08880        2.07563
H         -1.66844        1.07626        2.23318
H         -3.03395        1.80910        1.50014
C         -3.69620        1.79455       -1.12205
C         -2.05757        0.29248       -2.27527
C         -3.75714       -0.72339       -0.87191
H         -3.04725        2.69085       -1.23477
H         -4.37212        1.72952       -1.99813
H         -4.34554        1.94523       -0.23366
H         -1.41835       -0.61158       -2.21293
H         -2.73399        0.20085       -3.15176
H         -1.42836        1.14503       -2.43399
H         -3.15476       -1.64514       -0.72654
H         -4.51810       -0.63918       -0.08688
H         -4.36159       -0.84271       -1.79570
Na        -0.19560       -0.60507       -0.23586
C         -0.05554        3.88573        1.02132
C          2.28606        3.65525        0.91671
O          1.03054        2.99310        0.81978
C         -0.14227        5.05919        0.03476
C          3.45359        2.71274        0.67494
H         -0.98321        3.29210        0.90171
H         -0.06164        4.25451        2.07009
H          2.39464        4.45303        0.15517
H          2.40862        4.07185        1.94331
H          3.40416        2.27126       -0.33615
H          4.40786        3.27164        0.78941
H          3.46832        1.90149        1.40210
H         -0.13811        4.69522       -1.00351
H         -1.08665        5.61529        0.20774
H          0.68785        5.78102        0.16967
C          4.40327       -4.31705        0.18944
C          3.25677       -4.58918       -0.52036
C          2.61368       -3.38087       -0.75357
C          3.34750       -2.40982       -0.19888
N          4.50927       -2.93338        0.40266
C          3.00014       -0.94007       -0.18181
N          1.74366       -0.60357        0.52837
C          1.66482       -0.96367        1.98760
H          2.92329       -5.57679       -0.81833
H          5.11844       -5.04990        0.54281
H          1.67892       -3.25314       -1.28101
H          2.91349       -0.64156       -1.22917
H          3.84118       -0.36757        0.25969
C          2.80907       -0.38612        2.84706
C          0.38786       -0.36464        2.52856
C          1.57591       -2.49219        2.22216
H          2.74520        0.71332        2.90335
H          2.70034       -0.72471        3.90014
H          3.80854       -0.70330        2.49384
H         -0.43787       -0.76525        1.93705
H          0.21398       -0.62385        3.59523
H          0.43034        0.73844        2.42374
H          0.76323       -2.94218        1.61290
H          2.52371       -3.01600        2.02761
H          1.36727       -2.70774        3.29244
