95
speciation1431.ct
Na         1.19111       -0.26936       -0.20185
Mg         3.40977        3.34016       -3.70209
C         -1.34334       -1.79106        0.27269
C         -1.73548        0.13197       -0.99894
O         -0.91531       -0.46929       -0.01291
C         -1.14619       -2.77265       -0.88615
C         -1.37362        1.59609       -1.14849
H         -0.74833       -2.15108        1.13979
H         -2.40490       -1.80752        0.62117
H         -1.60866       -0.35345       -1.99051
H         -2.80738        0.09934       -0.69049
H         -0.32108        1.68033       -1.46797
H         -2.02648        2.06860       -1.91490
H         -1.49916        2.13067       -0.18521
H         -0.09784       -2.72864       -1.24307
H         -1.37420       -3.80403       -0.54440
H         -1.83625       -2.54594       -1.72579
H          2.80301        1.06372       -5.44085
C          1.14069        0.70106       -4.09319
C          2.56168        1.18849       -4.36946
C          0.06827        1.50520       -4.83035
H          1.06131       -0.36461       -4.40814
H          0.95660        0.73021       -3.00191
H         -0.92126        1.06350       -4.57933
H          0.07623        2.56082       -4.49195
C          0.25370        1.45325       -6.34763
H          3.21991        0.46424       -3.83454
H          1.18877        1.97009       -6.64749
H          0.29080        0.39789       -6.69469
H         -0.58957        1.96946       -6.84719
C          4.26018       -1.15507       -0.31079
C          5.57683       -0.71138       -0.33947
C          5.52163        0.65608       -0.32500
C          4.18916        0.98877       -0.26675
N          3.40058       -0.11439       -0.27965
C          3.70004        2.39107       -0.16150
N          2.77348        2.71136       -1.25730
C          2.19640        4.08275       -1.14492
H          6.47203       -1.31775       -0.36675
H          3.95563       -2.19009       -0.30344
H          6.36749        1.33574       -0.32287
H          3.17424        2.44269        0.80921
H          4.57079        3.06833       -0.15754
C          3.32547        5.11710       -1.19942
C          1.26335        4.32051       -2.35327
C          1.35615        4.30072        0.13120
H          3.99083        4.79507       -2.01584
H          2.94391        6.14755       -1.36440
H          3.92585        5.13781       -0.26701
H          0.42205        3.60558       -2.34980
H          0.83668        5.34686       -2.32576
H          1.77831        4.22461       -3.32302
H          0.53252        3.56143        0.18600
H          1.96705        4.23685        1.05245
H          0.91180        5.32152        0.11960
Na         4.08347        2.31977       -3.19314
Mg         3.75499        4.43266       -7.39802
H          3.77118        4.05459       -9.94389
C          1.85760        5.03561       -9.68188
C          2.92635        4.05042       -9.22253
C          2.41123        6.46172       -9.76993
H          1.49317        4.71910      -10.68419
H          1.00999        5.00748       -8.96482
H          2.76314        6.78414       -8.76757
H          3.26859        6.49707      -10.47853
C          1.33613        7.43189      -10.25474
H          2.50467        3.02372       -9.18836
H          1.00267        7.15757      -11.27882
H          0.46162        7.41110       -9.57025
H          1.74378        8.46445      -10.27974
C          5.69877        0.71989       -5.64260
C          6.49055        0.86088       -6.76406
C          6.67042        2.21271       -6.94621
C          5.98287        2.83175       -5.92166
N          5.39347        1.92819       -5.12898
C          5.94404        4.28811       -5.66413
N          4.56332        4.80553       -5.61822
C          4.54753        6.28549       -5.35364
H          6.90143        0.06697       -7.37304
H          5.37402       -0.21916       -5.21556
H          7.25507        2.69008       -7.72192
H          6.43928        4.42100       -4.68297
H          6.53732        4.78205       -6.45736
C          5.24385        7.08347       -6.48285
C          3.08034        6.72017       -5.25886
C          5.25668        6.69965       -4.03472
H          4.83365        6.82474       -7.47679
H          5.12357        8.17634       -6.31228
H          6.34182        6.91177       -6.48729
H          2.58916        6.21317       -4.40210
H          3.00254        7.81782       -5.09609
H          2.53541        6.45652       -6.18832
H          4.80064        6.23435       -3.16841
H          6.34037        6.46499       -4.02582
H          5.17733        7.79599       -3.87165
