110
speciation2176.ct
Na         0.94869       -0.05717        0.06403
Mg         4.26631        1.49308       -0.99504
C         -1.94084       -1.32292        0.34132
C         -1.94278        0.44989       -1.12817
O         -1.37131       -0.05717        0.06403
C         -1.35208       -1.90346        1.61732
C         -1.34808        1.80586       -1.46898
H         -3.03541       -1.20911        0.52026
H         -1.76610       -2.04252       -0.49088
H         -1.77334       -0.23638       -1.98928
H         -3.03538        0.61179       -0.97985
H         -0.27441        1.69371       -1.70724
H         -1.86462        2.22318       -2.36024
H         -1.47504        2.51022       -0.61975
H         -1.49774       -1.19946        2.46350
H         -1.86870       -2.85855        1.85668
H         -0.26961       -2.10596        1.48452
H          1.82295        2.33569       -1.26273
C          2.77569        3.99979       -2.26355
C          2.74211        2.94149       -1.16078
C          2.76591        3.38369       -3.66871
H          1.87579        4.65223       -2.15917
H          3.67847        4.63121       -2.14073
H          3.65080        2.73300       -3.79053
H          1.85254        2.76582       -3.80762
C          2.80042        4.46571       -4.74917
H          2.70613        3.45843       -0.17939
H          1.89995        5.11232       -4.68269
H          3.70892        5.09713       -4.63873
H          2.82247        3.99267       -5.75399
C          4.18299        2.18145        4.05563
C          2.98725        2.57812        3.50751
C          2.74910        1.74803        2.42856
C          3.82139        0.87911        2.36687
N          4.69272        1.13843        3.37582
C          4.00770       -0.23249        1.38169
N          3.31869       -0.05717        0.06403
C          3.52963       -1.22786       -0.83797
H          2.36157        3.38247        3.86067
H          4.66497        2.63095        4.91444
H          1.88746        1.77624        1.77458
H          3.66664       -1.14861        1.90341
H          5.10237       -0.31055        1.22211
C          2.92383       -2.52746       -0.25040
C          2.80805       -0.92285       -2.16150
C          5.02649       -1.47112       -1.15325
H          1.85518       -2.38384        0.01172
H          2.99677       -3.35820       -0.98519
H          3.46914       -2.87360        0.65138
H          3.22407       -0.00657       -2.63106
H          2.92459       -1.76769       -2.87599
H          1.72166       -0.77012       -1.99412
H          5.49952       -0.55433       -1.56019
H          5.59359       -1.80342       -0.25923
H          5.13624       -2.28435       -1.90348
Na         6.14616       -2.14933        3.86853
Mg         6.45785        0.36342        3.92964
C          6.77387        2.88139       -0.59062
C          6.34614        2.42853       -2.89350
O          6.08114        2.06886       -1.53346
C          6.72813        4.40543       -0.79824
C          7.78986        2.11738       -3.33116
H          6.29151        2.69913        0.38446
H          7.83379        2.54903       -0.51212
H          5.69292        1.81779       -3.54484
H          6.08269        3.48633       -3.09881
H          7.98717        1.02901       -3.28767
H          7.93812        2.46400       -4.37981
H          8.53955        2.64900       -2.70606
H          5.68012        4.75791       -0.82221
H          7.25010        4.90372        0.04939
H          7.26092        4.72133       -1.71842
H          6.57548        1.81857        6.24520
C          7.87533        0.14924        6.64184
C          6.59925        0.72495        6.04126
C          9.09858        0.84599        6.04094
H          7.87508        0.30489        7.74519
H          7.90283       -0.93982        6.43547
H          9.08019        0.75413        4.93679
H          9.07358        1.92659        6.30518
C         10.39662        0.23808        6.55862
H          5.71487        0.27404        6.54071
H         10.44868        0.31396        7.66498
H         10.46443       -0.82967        6.26310
H         11.25842        0.78310        6.11917
C          8.20866        0.73878        1.77287
C          9.25556        0.33931        0.96966
C          9.70042       -0.85152        1.48532
C          8.89938       -1.12865        2.58044
N          7.96464       -0.15794        2.74074
C          9.09861       -2.30589        3.47570
N          7.94626       -3.21527        3.44410
C          8.07692       -4.41391        4.31369
H          9.66071        0.86621        0.11815
H          7.64796        1.64213        1.66837
H         10.52712       -1.44288        1.11345
H         10.00690       -2.83702        3.13296
H          9.26833       -1.90426        4.48941
C          8.25034       -4.02046        5.79790
C          6.78008       -5.23422        4.18470
C          9.25327       -5.31351        3.86812
H          7.40887       -3.37415        6.12611
H          8.27306       -4.92532        6.44205
H          9.20508       -3.48478        5.97628
H          6.62763       -5.56265        3.13485
H          6.82683       -6.14064        4.82881
H          5.90252       -4.63075        4.49828
H          9.13719       -5.60306        2.80141
H         10.23510       -4.81383        3.99458
H          9.29083       -6.24071        4.47999
