83
speciation708.ct
Na         1.77671        0.81818       -1.34342
Mg         3.96483        2.59916       -3.10133
C          5.99724        4.85121       -4.16818
C          6.62897        3.89777       -2.09499
O          5.65745        3.89474       -3.15340
C          7.33357        4.56030       -4.89843
C          6.96186        5.28790       -1.47157
H          5.17217        4.93784       -4.88582
H          6.02037        5.88187       -3.75766
H          6.25474        3.25661       -1.29785
H          7.56786        3.40518       -2.41461
H          6.06068        5.82669       -1.11883
H          7.64081        5.17274       -0.59635
H          7.50731        5.95163       -2.18125
H          7.30753        3.59404       -5.43365
H          7.54593        5.35917       -5.64074
H          8.20064        4.55484       -4.20313
C          0.26347        0.50561       -4.36404
C          0.61558       -0.28862       -5.43976
C          1.80503       -0.88036       -5.10955
C          2.16464       -0.36608       -3.87888
N          1.18777        0.40261       -3.36284
C          3.40425       -0.65520       -3.09860
N          4.52176        0.34984       -3.28847
C          5.61919       -0.23386       -4.16056
H          0.06685       -0.44487       -6.35418
H         -0.63793        1.10088       -4.29096
H          2.32679       -1.60376       -5.71231
H          3.65244       -1.71917       -3.20237
H          3.08011       -0.68931       -2.07137
C          5.18730       -0.54027       -5.60688
C          6.76973        0.76914       -4.23280
C          6.22532       -1.56145       -3.57402
H          5.00302        0.35930       -6.20703
H          6.00156       -1.05494       -6.15510
H          4.34417       -1.23151       -5.62598
H          7.20453        0.94956       -3.22886
H          7.57553        0.39252       -4.89944
H          6.38695        1.72247       -4.63428
H          6.71485       -1.41073       -2.59118
H          5.52837       -2.41141       -3.46748
H          7.00388       -1.95898       -4.26054
Na         5.74628        0.28567       -1.54884
C          3.01228        2.36440       -5.91024
C          1.79663        4.22557       -5.21100
O          2.56889        3.07142       -4.75902
C          3.95165        3.13942       -6.85517
C          0.50821        3.89641       -6.00260
H          3.50474        1.49184       -5.51449
H          2.17271        1.92713       -6.48791
H          1.36837        4.83044       -4.41032
H          2.42516        4.95364       -5.75474
H         -0.20563        3.31170       -5.38084
H          0.00481        4.84796       -6.28216
H          0.68262        3.36342       -6.95809
H          4.83510        3.48837       -6.31258
H          4.31418        2.48654       -7.67144
H          3.44727        3.99789       -7.35146
C          4.00109       -0.91556        0.31774
C          5.19259       -0.69485        0.98762
C          5.36778        0.67289        1.03341
C          4.27886        1.21076        0.37487
N          3.45742        0.26427       -0.05465
C          3.99050        2.63749        0.17873
N          3.12325        2.90710       -1.00236
C          2.36963        4.18133       -0.78380
H          5.87042       -1.44594        1.37303
H          3.59147       -1.88459        0.07248
H          6.19881        1.20865        1.46911
H          3.47898        2.85933        1.12568
H          4.88945        3.26525        0.22690
C          3.33610        5.37692       -0.71842
C          1.49557        4.33942       -1.97934
C          1.42124        4.19481        0.45485
H          3.97710        5.36968       -1.62183
H          2.78332        6.33805       -0.68882
H          3.97116        5.33008        0.19063
H          0.74995        3.51687       -2.06429
H          0.97370        5.32212       -2.00058
H          2.24246        4.26464       -2.76261
H          0.70098        3.35075        0.41870
H          1.93945        4.18562        1.43144
H          0.83466        5.14231        0.46454
