110
speciation2516.ct
Na         2.03156        2.14634       -1.00947
Mg        -1.43050        3.01966        3.77766
C         -0.59829        0.14390        4.84932
C          1.09438        1.80211        4.87732
O         -0.29872        1.52626        4.67484
C         -0.51839       -0.27655        6.33025
C          2.11250        0.83186        4.19786
H         -1.59121       -0.07434        4.44488
H          0.02404       -0.52662        4.21871
H          1.27927        2.81274        4.49260
H          1.31660        1.87533        5.96077
H          1.96858        0.69622        3.12007
H          3.14946        1.22403        4.33138
H          2.11038       -0.17312        4.67705
H         -1.20802        0.32897        6.94956
H         -0.78231       -1.34707        6.45369
H          0.51089       -0.14039        6.72542
H         -0.21003        4.98632        5.18045
C         -1.76361        4.67122        6.64560
C         -1.27990        4.70674        5.17307
C         -0.97939        3.66983        7.51076
H         -1.62163        5.68591        7.08564
H         -2.84881        4.43305        6.68655
H         -1.13468        2.65174        7.10796
H          0.10365        3.90125        7.47269
C         -1.42817        3.68966        8.97639
H         -1.84809        5.51342        4.66603
H         -1.20652        4.67363        9.44387
H         -2.51711        3.48369        9.06767
H         -0.87873        2.90793        9.54519
C         -0.27339       -0.39204       -1.13189
C         -0.18786       -1.73505       -1.36114
C          1.07905       -1.95440       -1.82464
C          1.70591       -0.71792       -1.82645
N          0.91139        0.22694       -1.34039
C          3.06665       -0.43573       -2.32720
N          3.32288        1.01597       -2.27553
C          4.75202        1.39013       -2.16067
H         -0.97210       -2.45760       -1.18057
H         -1.15189        0.05496       -0.73954
H          1.49794       -2.90524       -2.10844
H          3.12934       -0.76615       -3.38546
H          3.74763       -1.03774       -1.71140
C          5.53959        0.84469       -3.36451
C          4.85060        2.91525       -2.16580
C          5.34649        0.89954       -0.82074
H          5.11029        1.24370       -4.31041
H          6.60599        1.15462       -3.30155
H          5.50557       -0.26213       -3.40087
H          4.34910        3.30133       -1.26362
H          5.91278        3.24876       -2.11878
H          4.38295        3.35603       -3.07023
H          4.75107        1.30167        0.02908
H          5.37814       -0.20032       -0.72366
H          6.39495        1.25209       -0.71169
Na         2.49095        1.93101       -4.03005
Mg        -1.48118        4.92941        0.69489
C         -4.21750        3.59594        2.78892
C         -4.38949        2.25613        4.66986
O         -3.49444        2.71289        3.65835
C         -4.83457        4.84613        3.42752
C         -3.75714        1.23364        5.57128
H         -3.51452        4.02181        2.06195
H         -4.99087        3.02656        2.21048
H         -4.73953        3.07359        5.32719
H         -5.26453        1.73364        4.20182
H         -2.87920        1.69009        6.06020
H         -4.47960        0.90734        6.34669
H         -3.50874        0.34367        4.97564
H         -4.05127        5.42603        3.95018
H         -5.26936        5.48226        2.62460
H         -5.66603        4.60896        4.12215
H         -2.33978        6.04546       -1.48821
C         -1.90613        7.76554       -0.24122
C         -2.42647        6.34940       -0.42389
C         -2.06292        8.20732        1.21510
H         -0.83664        7.80419       -0.54024
H         -2.49077        8.44347       -0.90210
H         -3.13329        8.14490        1.51287
H         -1.46895        7.53615        1.87318
C         -1.59130        9.64517        1.40285
H         -3.49915        6.30377       -0.13757
H         -0.52090        9.73986        1.12306
H         -2.19632       10.33284        0.77304
H         -1.71266        9.93962        2.46629
C          2.77921        5.28730       -0.74824
C          2.72025        6.43084        0.00994
C          1.97556        6.11970        1.12177
C          1.60009        4.79215        0.99943
N          2.12656        4.26736       -0.14025
C          0.82547        4.03642        2.07030
N         -0.55907        3.54422        1.78624
C         -0.74974        2.43634        0.83686
H          3.18483        7.38361       -0.21819
H          3.30124        5.20947       -1.69147
H          1.75093        6.79019        1.94063
H          1.48223        3.23558        2.43492
H          0.71034        4.74849        2.91367
C          0.15852        1.30667        1.32771
C         -2.21662        1.99557        0.91582
C         -0.61739        2.91319       -0.65359
H          0.00299        1.25091        2.40628
H         -0.06807        0.27504        1.08489
H          1.22782        1.52031        1.11553
H         -2.86037        2.82618        0.56188
H         -2.50931        1.19909        0.21927
H         -2.46924        1.63910        1.91660
H         -1.33026        3.72614       -0.87928
H          0.32028        3.32395       -0.96967
H         -0.83754        2.12976       -1.38949
