110
speciation2262.ct
Na         4.66938        2.17625        3.60643
Mg         1.91301        4.82777       -1.23468
C          5.36663        1.20195        6.43437
C          4.29736       -0.70991        5.52143
O          4.59255        0.66502        5.36503
C          6.69126        0.47325        6.70161
C          3.55485       -1.03724        6.84675
H          5.61167        2.24955        6.17058
H          4.76589        1.29784        7.35859
H          3.65048       -1.03261        4.67792
H          5.21497       -1.32655        5.41086
H          2.44876       -0.99990        6.71940
H          3.54637       -0.29933        7.65165
H          4.24943       -1.61555        7.50026
H          7.31888        0.48233        5.78840
H          7.23452        0.98233        7.52485
H          6.52884       -0.57414        7.03070
H          0.51906        4.50424       -3.32727
C         -0.82993        6.01178       -2.67301
C          0.12152        4.87150       -2.35851
C         -1.95731        5.47203       -3.57898
H         -1.26200        6.39760       -1.72211
H         -0.28310        6.82885       -3.18676
H         -1.52154        5.08460       -4.52716
H         -2.48831        4.63127       -3.07608
C         -2.97734        6.54680       -3.91148
H         -0.52099        4.13587       -1.86288
H         -3.46229        6.90637       -2.97977
H         -2.47874        7.39388       -4.42666
H         -3.75595        6.12326       -4.58106
C          5.10309        4.97901        2.15071
C          5.11465        5.79904        1.04909
C          4.75900        5.02020       -0.02618
C          4.50194        3.75646        0.45267
N          4.74786        3.72005        1.80993
C          4.09070        2.60859       -0.48919
N          2.75454        2.73500       -1.23275
C          2.00385        1.47828       -1.48538
H          5.36303        6.85763        1.02084
H          5.33567        5.28354        3.16105
H          4.70989        5.33255       -1.04367
H          4.89908        2.58225       -1.24210
H          4.28535        1.66314        0.01680
C          1.89622        0.57610       -0.22004
C          0.55143        1.78180       -1.95676
C          2.51314        0.63322       -2.70462
H          0.99303        0.81961        0.39172
H          2.06570       -0.49373       -0.46646
H          2.65875        0.72780        0.53271
H          0.58875        2.39265       -2.88187
H         -0.02747        0.87229       -2.20758
H          0.02112        2.28841       -1.12889
H          2.44678        1.20909       -3.67479
H          3.55949        0.26744       -2.57840
H          1.88690       -0.25612       -2.93201
Na         4.06454        2.34341       -3.16859
Mg         3.38428        9.88591        0.85817
C          4.78521        0.96626       -5.90764
C          6.68792        1.63656       -4.72874
O          5.34690        1.96009       -5.06358
C          5.42613        0.93443       -7.31128
C          7.24748        2.62397       -3.71771
H          4.82387       -0.03790       -5.43748
H          3.71638        1.22693       -6.06129
H          6.77292        0.60758       -4.31079
H          7.33980        1.74687       -5.62078
H          6.70139        2.55128       -2.75814
H          8.31938        2.38796       -3.53606
H          7.17724        3.65970       -4.11266
H          6.49026        0.62194       -7.27665
H          4.90026        0.19122       -7.94676
H          5.35724        1.93214       -7.79786
H          2.35070        5.71904        1.35027
C          0.48894        4.81212        1.84917
C          1.38167        5.55605        0.82950
C         -0.92627        4.56064        1.31686
H          0.96152        3.84423        2.10310
H          0.40938        5.42212        2.78465
H         -1.42434        5.52825        1.07811
H         -0.85621        3.95145        0.40113
C         -1.79670        3.80570        2.32906
H          0.93343        6.55940        0.66237
H         -1.31870        2.84501        2.61588
H         -1.97081        4.41080        3.24608
H         -2.78478        3.57781        1.87174
C          3.56877        5.76640       -3.51167
C          4.16420        6.75497       -4.27611
C          3.97912        7.91384       -3.57771
C          3.29865        7.62865       -2.41192
N          3.03180        6.26923       -2.37464
C          2.93710        8.68310       -1.42981
N          4.12385        9.41904       -0.88665
C          4.54680       10.78547       -1.35068
H          4.65392        6.66873       -5.21087
H          3.51252        4.72941       -3.82721
H          4.28657        8.86744       -3.93869
H          2.17961        9.37121       -1.85705
H          2.44886        8.17032       -0.57516
C          3.35433       11.71377       -1.65413
C          5.39676       11.36446       -0.18340
C          5.50112       10.83465       -2.57621
H          2.69297       11.80546       -0.77237
H          3.69504       12.73169       -1.95345
H          2.76866       11.32800       -2.51243
H          6.13423       10.59917        0.14707
H          5.98205       12.26244       -0.48380
H          4.76803       11.63957        0.67665
H          6.40490       10.19960       -2.44514
H          5.01919       10.66767       -3.54560
H          5.87004       11.88100       -2.71500
