110
speciation2622.ct
Na         5.54969        4.11292        0.78628
Mg         4.28281        3.28090       -3.01142
C          5.15216        6.13655       -2.73143
C          6.20528        4.89698       -4.48083
O          5.47462        4.85007       -3.24033
C          4.45150        7.05016       -3.71065
C          7.61748        5.51505       -4.36752
H          4.45640        5.93851       -1.91854
H          6.04136        6.61390       -2.27872
H          6.34278        3.86299       -4.86204
H          5.62627        5.40978       -5.27410
H          8.31302        4.85529       -3.80982
H          8.04120        5.65912       -5.38703
H          7.61316        6.51300       -3.88529
H          3.67501        6.45968       -4.17601
H          4.02331        7.92057       -3.17443
H          5.12226        7.41057       -4.51383
H         -3.53129        5.22565       -6.27568
C         -3.87015        4.47616       -8.16049
C         -3.21650        5.52230       -7.26336
C         -3.28845        3.07477       -7.92051
H         -4.96111        4.45764       -7.92648
H         -3.73508        4.76509       -9.22016
H         -2.20832        3.08163       -8.17877
H         -3.39551        2.77772       -6.85200
C         -4.00590        2.03573       -8.78260
H         -3.69359        6.50870       -7.41634
H         -5.07702        1.96479       -8.49290
H         -3.93940        2.31306       -9.85582
H         -3.53786        1.03828       -8.64334
C          4.10417        6.90838        0.58623
C          2.90117        7.48980        0.25105
C          2.06458        6.46374       -0.12768
C          2.79306        5.30299       -0.01426
N          4.03702        5.56455        0.43291
C          2.24272        3.93258       -0.25788
N          3.01668        2.97317       -1.10593
C          2.14523        1.71980       -1.22954
H          2.64992        8.54163        0.28264
H          4.98059        7.43280        0.93004
H          1.03479        6.56756       -0.43238
H          2.14601        3.51456        0.76446
H          1.21298        4.07532       -0.62698
C          1.00238        1.99554       -2.19271
C          2.94494        0.63304       -1.87043
C          1.57191        1.12290        0.08630
H          1.48673        2.48475       -3.03926
H          0.49628        1.06219       -2.53547
H          0.21109        2.63951       -1.77774
H          3.70414        0.30548       -1.14745
H          2.34076       -0.27096       -2.11283
H          3.29942        1.06700       -2.81678
H          2.37346        0.87275        0.80593
H          0.82614        1.78636        0.57037
H          1.01347        0.18442       -0.14267
Na        -0.38236        7.77463       -4.65190
Mg        -1.07163        5.75237       -7.11732
C          7.07397        2.51846       -2.14808
C          5.83952        0.57763       -2.57774
O          6.01777        1.94493       -2.94577
C          8.49221        2.21194       -2.67594
C          6.91610       -0.43494       -2.95671
H          7.01876        3.60807       -2.21563
H          6.98412        2.31937       -1.05495
H          5.68480        0.47481       -1.48186
H          5.03265        0.19061       -3.20389
H          7.75365       -0.45973       -2.23998
H          6.47802       -1.45324       -2.85763
H          7.24292       -0.28549       -4.00449
H          8.53110        2.31339       -3.77993
H          9.23478        2.89961       -2.22110
H          8.86367        1.21798       -2.39771
H          0.28786        6.39644       -9.47920
C         -0.90730        8.16747       -9.43982
C         -0.75722        6.64983       -9.19517
C         -2.29593        8.69027       -9.05829
H         -0.15482        8.68419       -8.81002
H         -0.69194        8.41968      -10.50671
H         -3.09929        8.22650       -9.67766
H         -2.45329        8.41860       -7.99760
C         -2.38556       10.21603       -9.17129
H         -1.42127        6.12086       -9.91348
H         -1.46993       10.70157       -8.77407
H         -3.24810       10.58086       -8.57423
H         -2.52931       10.53890      -10.22808
C          2.88533        2.17503       -5.45803
C          2.02919        2.16982       -6.54330
C          1.45525        3.39766       -6.58443
C          1.92285        4.11079       -5.52734
N          2.86786        3.36134       -4.78988
C          1.35860        5.53782       -5.26345
N         -0.13375        5.71901       -5.22319
C         -0.80914        4.98500       -4.10559
H          1.83763        1.32643       -7.20198
H          3.48591        1.32359       -5.14009
H          0.71653        3.69712       -7.30140
H          1.77337        5.97817       -4.36629
H          1.72166        6.16388       -6.11782
C         -0.12218        5.30641       -2.74371
C         -2.27247        5.44022       -3.86748
C         -0.87926        3.49891       -4.51322
H         -0.19063        6.40307       -2.54534
H         -0.62204        4.79895       -1.89359
H          0.94276        5.02217       -2.69939
H         -2.41349        6.53722       -3.94164
H         -2.99412        4.86411       -4.44304
H         -2.61574        5.13961       -2.84939
H         -1.03017        3.46699       -5.61031
H          0.04947        2.97934       -4.34611
H         -1.70992        2.89973       -4.09457
