110
speciation2501.ct
Na         5.04737        0.30044       -2.77235
Mg         2.21097        4.67386       -0.70392
C         -0.39798        4.74249        1.03867
C          1.63385        4.58477        2.27844
O          1.02928        4.80079        0.99299
C         -1.01632        5.94957        1.76536
C          1.09676        3.39940        3.12639
H         -0.77923        4.67771        0.01096
H         -0.78205        3.80225        1.48081
H          2.71325        4.40455        2.12027
H          1.56645        5.51117        2.88618
H          1.18420        2.44039        2.59514
H          1.68050        3.30856        4.06566
H          0.04088        3.53828        3.44157
H         -0.73102        6.90314        1.28367
H         -2.12353        5.87051        1.75392
H         -0.69667        5.98539        2.82789
H          4.28635        5.88935        0.67238
C          3.38830        7.75611        0.04094
C          3.74043        6.25849       -0.21928
C          2.50827        7.99147        1.28640
H          4.33394        8.32839        0.18883
H          2.88245        8.17848       -0.85476
H          1.56173        7.44408        1.17938
H          3.01600        7.60957        2.19628
C          2.17462        9.47635        1.50168
H          4.43943        6.24378       -1.07978
H          3.08798       10.05969        1.74700
H          1.69681        9.91795        0.60026
H          1.46173        9.58169        2.34983
C          5.61348       -0.89742       -0.07487
C          5.53045       -0.79886        1.29392
C          4.84930        0.36797        1.55977
C          4.52398        0.93866        0.33774
N          5.01597        0.15976       -0.65833
C          3.78708        2.27987        0.19827
N          3.01058        2.54457       -1.05010
C          1.83526        1.60961       -1.23875
H          5.93611       -1.50073        2.01389
H          6.09793       -1.69728       -0.62056
H          4.62342        0.75687        2.54226
H          3.15912        2.41538        1.08130
H          4.53948        3.09127        0.31425
C          0.87453        1.64569       -0.05480
C          1.09051        2.05884       -2.49046
C          2.20819        0.12923       -1.43605
H          0.58619        2.66974        0.12118
H         -0.04309        1.05268       -0.25484
H          1.34404        1.20344        0.84559
H          1.75520        1.98536       -3.37711
H          0.19623        1.42688       -2.67551
H          0.72863        3.08893       -2.35469
H          2.96395        0.02858       -2.21594
H          2.55480       -0.35787       -0.50442
H          1.31555       -0.46148       -1.74238
Na         6.20958        4.13043       -8.40875
Mg         4.21163        2.25297       -2.80514
C          2.02900        5.03359       -3.63323
C          0.64190        6.61703       -2.65781
O          1.33493        5.38863       -2.42640
C          3.08301        6.03651       -4.12756
C         -0.17574        7.06033       -1.47806
H          2.56685        4.08764       -3.45579
H          1.29741        4.82112       -4.44840
H          1.33331        7.45828       -2.86563
H         -0.08342        6.49294       -3.49665
H          0.50277        7.23068       -0.63579
H         -0.69394        8.01492       -1.71391
H         -0.95068        6.31726       -1.25134
H          3.82271        6.23727       -3.33038
H          3.60903        5.61862       -5.01108
H          2.63716        6.98894       -4.48153
H          6.74060        3.47897       -3.12003
C          6.97715        2.34995       -1.29006
C          6.14377        3.23800       -2.22310
C          8.37674        2.85638       -0.95000
H          6.45279        2.27883       -0.33577
H          7.07867        1.34243       -1.74148
H          8.99945        2.88300       -1.86944
H          8.32249        3.87583       -0.51199
C          9.01615        1.91160        0.07729
H          5.94741        4.21546       -1.73688
H          8.41974        1.90495        1.01751
H          9.05535        0.87201       -0.31624
H         10.04680        2.24032        0.31939
C          8.23303        2.54314       -6.60201
C          8.33212        1.80306       -5.44295
C          7.07101        1.78694       -4.89574
C          6.25403        2.50297       -5.74545
N          6.96672        2.95743       -6.79576
C          4.77624        2.71546       -5.57199
N          4.11361        1.58316       -4.88783
C          4.00636        0.30810       -5.71834
H          9.21133        1.34223       -5.02499
H          9.05278        2.75534       -7.27869
H          6.78357        1.28449       -3.99311
H          4.28307        2.99918       -6.52432
H          4.65272        3.59395       -4.91122
C          5.35696       -0.42983       -5.89586
C          3.04880       -0.68379       -5.03723
C          3.43838        0.55874       -7.14541
H          5.82719       -0.65070       -4.91734
H          5.21764       -1.39805       -6.42429
H          6.05173        0.12852       -6.55138
H          2.01498       -0.28249       -4.99281
H          3.01065       -1.64208       -5.60729
H          3.40711       -0.94769       -4.03120
H          2.43277        1.02635       -7.10420
H          4.10991        1.18916       -7.76405
H          3.33994       -0.40382       -7.69964
