95
speciation1218.ct
Na         0.81286        0.29629       -1.83128
Mg         9.33391        3.25971       -0.96983
C         -1.81351       -0.58573       -0.42599
C         -2.30869        0.52251       -2.44444
O         -1.44651        0.44554       -1.32594
C         -1.71945       -2.00162       -1.00832
C         -1.83060        1.62287       -3.37993
H         -1.10283       -0.52971        0.42570
H         -2.82159       -0.39592        0.00385
H         -2.32031       -0.41631       -3.03487
H         -3.33710        0.78523       -2.10938
H         -0.82259        1.37352       -3.77490
H         -2.53453        1.71511       -4.23494
H         -1.78475        2.59405       -2.84448
H         -0.71485       -2.17277       -1.44840
H         -1.88981       -2.74199       -0.19868
H         -2.50031       -2.17901       -1.77557
H          9.19188        3.33915        1.70903
C          7.13135        2.95755        1.11201
C          8.48243        3.65084        0.91724
C          7.19400        1.42826        0.95347
H          6.72003        3.20362        2.11808
H          6.41684        3.34956        0.35614
H          6.16388        1.02200        1.06445
H          7.55846        1.17283       -0.06335
C          8.08117        0.75609        2.00081
H          8.33250        4.74811        1.01476
H          9.13466        1.08409        1.89966
H          7.71808        0.99239        3.02390
H          8.05256       -0.34465        1.85888
C          3.36288        4.45822       -1.03326
C          2.07346        4.07380       -0.73485
C          2.05192        2.69457       -0.77165
C          3.33342        2.28932       -1.10334
N          4.13118        3.36868       -1.23876
C          3.82232        0.87489       -1.26453
N          3.12092        0.14382       -2.34751
C          3.50485       -1.28581       -2.48087
H          1.23735        4.72529       -0.52134
H          3.72216        5.47215       -1.10690
H          1.19250        2.07165       -0.58107
H          3.66016        0.38327       -0.28518
H          4.91063        0.91794       -1.47698
C          3.14415       -2.09286       -1.21331
C          2.71024       -1.86827       -3.66187
C          5.01165       -1.45051       -2.78811
H          2.06395       -1.98513       -0.97749
H          3.36423       -3.17197       -1.36608
H          3.73763       -1.77488       -0.33346
H          2.95321       -1.32607       -4.60078
H          2.95570       -2.94312       -3.81113
H          1.61766       -1.78074       -3.48000
H          5.28661       -0.90095       -3.71488
H          5.64955       -1.08876       -1.95698
H          5.26170       -2.52440       -2.93422
Na         3.52626        1.12199       -4.20351
Mg         6.03748        3.40784       -1.80850
H         11.73840        2.98827       -2.18004
C         12.41652        3.02826       -0.13402
C         11.47404        3.50849       -1.23461
C         12.23010        1.53593        0.13207
H         13.46983        3.22202       -0.44557
H         12.21281        3.60617        0.79211
H         11.17694        1.35297        0.43042
H         12.45017        0.95689       -0.79207
C         13.15405        1.05647        1.24924
H         11.66224        4.59410       -1.38487
H         14.21896        1.19415        0.96242
H         12.95370        1.62179        2.18452
H         12.97378       -0.02191        1.44128
C         10.76501        1.06260       -4.96141
C          9.89764        1.23353       -6.01740
C          8.70175        1.70377       -5.49436
C          8.83963        1.82854       -4.16972
N         10.13123        1.43568       -3.76113
C          7.72806        2.25674       -3.24384
N          7.94377        3.44700       -2.37824
C          8.12104        4.76500       -3.06186
H         10.11904        1.01801       -7.05842
H         11.78092        0.69079       -5.03650
H          7.81620        1.92308       -6.07440
H          7.52070        1.39320       -2.58115
H          6.80092        2.40229       -3.83660
C          6.91195        5.11231       -3.95520
C          8.24076        5.84089       -1.96943
C          9.40728        4.83916       -3.92088
H          5.97151        5.10344       -3.36546
H          7.03615        6.12599       -4.39692
H          6.81419        4.40482       -4.80469
H          9.11693        5.63536       -1.31781
H          8.38382        6.84760       -2.42246
H          7.32743        5.86830       -1.33937
H         10.30467        4.59440       -3.32882
H          9.37112        4.18212       -4.80514
H          9.54256        5.86419       -4.32903
