96
speciation1021.ct
Na         1.68426        0.79963       -1.89704
Mg         5.87263        0.24036       -4.40232
C         -0.61920       -0.09355       -3.02024
C         -1.57781        1.72975       -1.95328
O         -0.35070        1.14157       -2.39336
C         -0.94570        0.07021       -4.48445
C         -1.39772        3.10050       -1.33801
H          0.31192       -0.69505       -2.96472
H         -1.42322       -0.66950       -2.52220
H         -2.22594        1.92316       -2.84009
H         -2.10528        1.08886       -1.22351
H         -1.06186        3.80221       -2.11808
H         -2.37901        3.49933       -1.01032
H         -0.71650        3.04952       -0.46244
H         -0.14070        0.65136       -4.97503
H         -1.01900       -0.93957       -4.93937
H         -1.92069        0.58055       -4.60084
H          5.94678       -2.37384       -4.86288
C          7.02269       -2.11500       -2.96855
C          6.61709       -1.65815       -4.34701
C          5.82002       -2.12286       -2.05377
H          7.48645       -3.12381       -3.01826
H          7.77581       -1.39855       -2.57086
H          6.16921       -2.41254       -1.04059
H          5.41719       -1.08782       -2.03044
C          4.73446       -3.10265       -2.51557
H          7.53859       -1.59259       -4.96339
H          4.30906       -2.80175       -3.49280
H          5.15289       -4.12659       -2.58038
H          3.88670       -3.12544       -1.81465
C          1.99796        3.70601       -4.47063
C          2.29914        4.10665       -5.74585
C          2.88209        3.06800       -6.34086
C          3.04200        2.13585       -5.34622
N          2.33670        2.39954       -4.19848
C          4.27241        1.39504       -5.43847
N          5.14643        2.09233       -4.45628
C          6.23401        3.04654       -4.72529
H          2.16702        5.08877       -6.17924
H          1.58471        4.47896       -3.92970
H          3.31999        3.08343       -7.33092
H          4.72492        1.43792       -6.45635
H          4.09014        0.33241       -5.18604
C          5.67911        4.42649       -5.09909
C          7.02122        3.17285       -3.40421
C          7.19548        2.53823       -5.81329
H          4.99768        4.79983       -4.30792
H          6.50756        5.15861       -5.21586
H          5.13024        4.38247       -6.05685
H          7.43414        2.18427       -3.10076
H          7.86501        3.88935       -3.49708
H          6.35684        3.52154       -2.58321
H          7.60940        1.54585       -5.53171
H          6.69393        2.45691       -6.79699
H          8.04600        3.24667       -5.92792
Mg         4.04647        2.42113       -2.83083
C          0.69100       -0.73754        1.07868
C         -0.24695       -2.08166       -0.61662
O          0.55604       -0.92262       -0.36759
C          0.95320       -2.01176        1.95676
C         -1.72550       -2.00085       -0.10237
H          1.55296       -0.09119        1.25879
H         -0.19481       -0.22187        1.50436
H         -0.27367       -2.34674       -1.65677
H          0.20452       -3.01002       -0.17579
H         -2.29720       -1.18076       -0.57056
H         -2.25653       -2.94219       -0.31846
H         -1.78588       -1.85968        0.97072
H          1.83111       -2.59411        1.61905
H          1.14124       -1.72383        3.02986
H          0.07598       -2.70679        2.02244
C          3.96190       -1.01991        0.04231
C          5.05246       -0.74619        0.84454
C          5.23477        0.59247        0.81184
C          4.23445        1.07150       -0.03099
N          3.47447        0.12161       -0.52905
C          4.00594        2.45574       -0.21328
N          2.94652        2.74993       -1.20538
C          2.58717        4.22913       -0.86929
H          5.67750       -1.43928        1.42537
H          3.54504       -1.99447       -0.07474
H          5.95791        1.18265        1.35233
H          3.71261        2.71263        0.81656
H          4.96418        2.93872       -0.49210
C          3.81045        5.18133       -1.14281
C          1.38744        4.75164       -1.66417
C          2.11869        4.53219        0.59167
H          4.23950        5.00196       -2.14782
H          3.53581        6.25230       -1.05707
H          4.61739        5.04234       -0.38675
H          0.51088        5.10789       -1.06511
H          1.61441        5.68035       -2.22649
H          0.97108        3.88228       -2.18452
H          1.23491        3.92062        0.84523
H          2.88546        4.44450        1.39554
H          1.82313        5.61067        0.68595
