95
speciation1680.ct
Na         1.61529        2.81568        1.75164
Mg         2.06485        8.15412       -2.80151
C          0.17512        9.71829       -3.74953
C          2.32044       10.30758       -4.57135
O          1.54975        9.85820       -3.45387
C         -0.15306        8.78040       -4.89785
C          2.04668       11.69948       -5.00837
H         -0.30349        9.29529       -2.83411
H         -0.28633       10.72203       -3.96314
H          3.37307       10.31332       -4.21382
H          2.28427        9.55597       -5.40208
H          2.22912       12.40426       -4.16935
H          2.73643       11.95389       -5.84113
H          1.00851       11.81100       -5.37896
H          0.31817        7.78799       -4.74154
H         -1.25387        8.64691       -4.98265
H          0.17764        9.18933       -5.87276
H          4.24009        6.48361       -3.01500
C          4.84946        8.03532       -4.40362
C          3.76516        7.15409       -3.76234
C          5.54165        8.94390       -3.37483
H          5.62072        7.40671       -4.90078
H          4.37756        8.63490       -5.20278
H          4.79783        9.48445       -2.76491
H          6.16240        8.32588       -2.69105
C          6.39980       10.00644       -4.05984
H          3.32736        6.51412       -4.55811
H          7.17038        9.54024       -4.70624
H          5.75686       10.66819       -4.68181
H          6.89724       10.63789       -3.29307
C         -0.97031        4.61527        1.93562
C         -1.87765        4.17668        1.03956
C         -1.37803        4.50370       -0.17786
C         -0.15074        5.16330        0.03850
N          0.21505        4.98932        1.36345
C         -0.00724        6.48516       -0.90322
N          1.30361        7.14935       -1.22544
C          1.90598        7.89604       -0.05088
H         -2.85474        3.78738        1.22584
H         -1.19594        4.69336        3.01589
H         -1.95587        4.52683       -1.08340
H         -0.74228        7.23516       -0.55493
H         -0.38742        6.15059       -1.89243
C          2.03762        7.07109        1.24334
C          3.33728        8.32492       -0.40625
C          1.10277        9.17015        0.30510
H          2.50646        6.08018        1.05016
H          2.66016        7.58718        2.00597
H          1.06024        7.02413        1.74850
H          3.31440        9.03548       -1.24845
H          3.81191        8.85458        0.45383
H          3.96961        7.44655       -0.65397
H          1.07987        9.89034       -0.53557
H          0.06119        8.92836        0.60018
H          1.55734        9.67689        1.18805
Na         2.05605        4.90197       -1.22883
Mg         3.90844        2.32579       -2.85768
H          5.74156        2.83277       -4.67773
C          4.13467        1.78739       -5.72886
C          5.03603        1.98873       -4.52397
C          3.26382        3.01802       -5.97557
H          4.76380        1.58029       -6.62173
H          3.48598        0.90480       -5.53391
H          2.64249        3.22529       -5.08281
H          3.90436        3.90580       -6.16177
C          2.35172        2.79239       -7.17627
H          5.61916        1.05839       -4.35751
H          2.96182        2.62211       -8.08876
H          1.69804        1.90942       -7.00581
H          1.71197        3.68531       -7.33226
C          3.79758       -0.47137        1.13904
C          4.94877       -0.55559        0.32821
C          5.13797        0.68850       -0.18610
C          4.10074        1.45218        0.30990
N          3.27372        0.82173        1.15324
C          3.72966        2.75770       -0.09533
N          2.80849        2.65459       -1.23223
C          1.58731        1.79238       -1.46167
H          5.58394       -1.40853        0.08554
H          3.38452       -1.34381        1.62953
H          5.90299        1.01758       -0.88363
H          3.29574        3.30311        0.74779
H          4.62545        3.33683       -0.37935
C          0.62530        1.91996       -0.32987
C          0.85796        2.29383       -2.73582
C          1.86313        0.28986       -1.66901
H          0.56543        2.97287       -0.16556
H         -0.37822        1.48671       -0.50127
H          1.03210        1.38974        0.52691
H          1.45033        2.08607       -3.64526
H         -0.11148        1.75561       -2.86466
H          0.61774        3.37753       -2.68605
H          2.66336        0.11700       -2.41110
H          2.10468       -0.22602       -0.73064
H          0.93125       -0.21833       -2.01035
