110
speciation2232.ct
Na         1.08164       -0.03871       -0.04286
Mg         3.45721        3.65111       -1.29731
C         -1.82916        0.97577        0.75366
C         -2.05398       -1.20182       -0.10389
O         -1.23836       -0.03871       -0.04286
C         -2.08279        0.58176        2.21761
C         -1.40107       -2.31062       -0.91422
H         -1.12085        1.82058        0.76307
H         -2.75973        1.35826        0.27779
H         -2.24618       -1.64001        0.89736
H         -3.01243       -0.94763       -0.60919
H         -0.49988       -2.69365       -0.39057
H         -2.12635       -3.14995       -1.01392
H         -1.12954       -1.95324       -1.92745
H         -1.16418        0.15172        2.66789
H         -2.38571        1.47849        2.79695
H         -2.91692       -0.14553        2.30559
H          4.92161        6.12980       -0.11949
C          6.10419        6.23135       -1.80731
C          5.31178        5.37917       -0.81598
C          5.14760        7.17389       -2.49868
H          6.94646        6.80694       -1.35093
H          6.56761        5.52243       -2.52356
H          5.55683        7.40639       -3.51225
H          4.20397        6.65932       -2.45840
C          4.67109        8.43572       -1.83567
H          6.16979        4.93686       -0.28158
H          4.19124        8.20235       -0.86391
H          5.48055        9.17262       -1.74166
H          3.87891        8.83377       -2.51582
C          5.69873        2.46464       -2.86640
C          6.26584        1.32750       -3.40519
C          5.50448        0.27771       -2.95670
C          4.51690        0.82862       -2.15336
N          4.62819        2.17503       -2.10104
C          3.43936        0.01136       -1.51782
N          3.45164       -0.03871       -0.04286
C          4.45643       -0.97004        0.58136
H          7.12344        1.27367       -4.05186
H          6.05672        3.46201       -3.06487
H          5.64900       -0.75914       -3.19344
H          3.41450       -1.00641       -1.94232
H          2.48368        0.48061       -1.84708
C          5.89832       -0.45974        0.34014
C          4.22498       -1.01139        2.10278
C          4.36176       -2.42920        0.07689
H          6.00305        0.60888        0.61451
H          6.63715       -1.04777        0.92430
H          6.20022       -0.58714       -0.71123
H          3.26076       -1.50528        2.34659
H          5.03543       -1.58498        2.60795
H          4.23545       -0.00121        2.53589
H          3.35380       -2.84898        0.26330
H          4.61086       -2.52562       -0.99863
H          5.10500       -3.06122        0.61668
Na         3.71092        1.57428        0.69360
Mg         2.37244        5.18736       -2.19962
C          0.05719        2.93458       -2.10080
C          1.38833        3.64855       -3.81482
O          1.41187        3.35866       -2.43479
C         -0.52519        1.74623       -2.87688
C          0.73101        5.02766       -4.15463
H         -0.01981        2.55476       -1.09978
H         -0.65192        3.79151       -2.12106
H          2.39825        3.43956       -4.13192
H          0.94154        2.89195       -4.46881
H          1.18795        5.89098       -3.63151
H          0.77122        5.22627       -5.24460
H         -0.34429        5.04450       -3.89110
H          0.20865        0.91400       -2.88154
H         -1.45989        1.42030       -2.37843
H         -0.83124        2.01909       -3.90718
H          3.49523        6.51878       -4.37910
C          3.69502        4.86663       -5.63040
C          3.61495        5.42057       -4.22775
C          4.94640        5.39769       -6.30475
H          3.80428        3.76104       -5.59347
H          2.78920        5.14023       -6.20410
H          4.92546        6.51009       -6.36082
H          5.83809        5.09031       -5.70846
C          5.02667        4.79530       -7.68924
H          4.54332        5.05974       -3.75339
H          4.97398        3.68589       -7.61554
H          4.16666        5.16051       -8.29035
H          5.98063        5.08488       -8.16639
C         -0.02810        5.86949       -0.34211
C         -0.80083        5.46647        0.73144
C         -0.20163        4.35954        1.26414
C          0.89370        4.11365        0.47487
N          1.03202        5.03575       -0.51682
C          1.74981        2.90549        0.68401
N          3.12131        3.29160        0.69119
C          3.70926        3.71336        1.97102
H         -1.72649        5.90346        1.08002
H         -0.25100        6.69247       -0.99509
H         -0.55204        3.75584        2.09217
H          1.69776        2.21051       -0.16132
H          1.43646        2.27207        1.54183
C          3.19877        2.93144        3.20432
C          5.21801        3.40257        1.88185
C          3.36673        5.19460        2.18569
H          3.30533        1.84470        3.04679
H          3.78162        3.20409        4.10791
H          2.12905        3.12963        3.41712
H          5.58050        3.48356        0.86738
H          5.82279        3.98508        2.60279
H          5.41184        2.32428        2.05414
H          3.52239        5.79581        1.28832
H          2.28136        5.29268        2.39744
H          3.92099        5.61753        3.04423
