53
speciation845.ct
Na         1.29442        1.88246       -0.03622
C         -1.79792        1.14267       -0.00775
C         -2.42221       -0.08764       -0.04432
C         -1.42523       -1.04346       -0.08668
C         -0.22557       -0.35615       -0.07118
N         -0.46115        0.96489       -0.02839
C          1.16163       -0.98260       -0.09886
N          2.24500        0.03300       -0.00400
C          3.04528        0.02627        1.24216
H         -3.48800       -0.26128       -0.03691
H         -2.27392        2.11152        0.02252
H         -1.55839       -2.12152       -0.12478
H          1.27775       -1.54084       -1.05160
H          1.21769       -1.72672        0.71945
C          3.89876       -1.25828        1.31756
C          3.96044        1.25166        1.19770
C          2.17611        0.18390        2.50977
H          4.51911       -1.36722        0.40232
H          4.57170       -1.23211        2.20123
H          3.26708       -2.16494        1.41595
H          3.37933        2.19662        1.22073
H          4.69254        1.25383        2.03404
H          4.48769        1.26077        0.25495
H          1.58902        1.12705        2.45689
H          1.47302       -0.65710        2.65649
H          2.82739        0.23940        3.41074
Na         4.87615       -3.18898       -4.52741
Mg         3.38218        0.08335       -1.63630
C          1.79437       -2.89518       -4.60710
C          0.74133       -2.00273       -4.61632
C          1.29470       -0.74914       -4.54614
C          2.66501       -0.92211       -4.50154
N          2.96543       -2.23723       -4.53782
C          3.67261        0.19175       -4.47232
N          4.51935        0.13370       -3.26860
C          5.57790        1.18460       -3.19626
H         -0.31125       -2.24624       -4.67399
H          1.70656       -3.97617       -4.65985
H          0.75806        0.19448       -4.54552
H          3.12159        1.15113       -4.50788
H          4.28087        0.08334       -5.39129
C          4.93526        2.58349       -3.05956
C          6.47663        0.91115       -1.97711
C          6.53078        1.15684       -4.41248
H          4.20625        2.59685       -2.22092
H          5.70574        3.36142       -2.87210
H          4.40584        2.87494       -3.99092
H          6.96475       -0.08230       -2.05209
H          7.26441        1.69131       -1.87945
H          5.92276        0.90990       -1.05132
H          7.02035        0.16137       -4.49221
H          6.01947        1.38844       -5.36527
H          7.33036        1.92142       -4.28714
