95
speciation1434.ct
Na         4.65249        4.73199        2.88138
Mg         2.30510        4.65126       -1.15602
C          3.69194        4.07104        5.93523
C          2.63615        5.95827        5.00697
O          3.79184        5.13469        4.99787
C          2.48902        3.13253        5.74360
C          2.79515        7.12214        4.04010
H          4.61649        3.46430        5.84917
H          3.69226        4.48146        6.96967
H          1.73636        5.40364        4.66988
H          2.47928        6.38982        6.02174
H          2.92467        6.74108        3.00659
H          1.87590        7.74818        4.07048
H          3.66520        7.75143        4.31785
H          2.48897        2.70185        4.72168
H          2.54783        2.30841        6.48535
H          1.52602        3.65145        5.93206
H          1.56416        6.93931       -2.20254
C          2.67843        7.43932       -0.41618
C          1.65743        6.58572       -1.15310
C          4.03256        7.37298       -1.13110
H          2.32186        8.49203       -0.38686
H          2.77854        7.06020        0.62175
H          4.37909        6.31848       -1.17792
H          3.92478        7.75557       -2.17023
C          5.08326        8.21026       -0.40896
H          0.66201        6.64141       -0.66478
H          4.76611        9.27409       -0.36598
H          5.23554        7.83121        0.62386
H          6.04732        8.14865       -0.95701
C          6.61711        4.96645        0.25595
C          6.93306        4.51830       -1.00178
C          6.00670        3.55061       -1.31229
C          5.15141        3.44975       -0.24804
N          5.53168        4.32060        0.71927
C          3.98231        2.50138       -0.14049
N          2.93689        2.76422       -1.15887
C          1.72209        1.92866       -1.09495
H          7.75321        4.84531       -1.62763
H          7.15158        5.73010        0.80723
H          5.98288        2.98098       -2.20322
H          4.35963        1.46126       -0.24368
H          3.55434        2.62563        0.87598
C          1.09036        1.90226        0.31307
C          0.71087        2.56863       -2.03270
C          2.02642        0.50842       -1.61523
H          0.91704        2.94272        0.67307
H          0.11493        1.37203        0.29777
H          1.73551        1.37456        1.04262
H          1.15728        2.51920       -3.02615
H         -0.25058        2.01304       -2.04606
H          0.50458        3.62678       -1.75419
H          2.61918        0.57549       -2.55485
H          2.61012       -0.08024       -0.88114
H          1.08733       -0.04016       -1.84697
Na         3.38908        3.27054       -3.18397
Mg         2.33067        6.13899       -5.50229
H          0.95648        7.77225       -7.04816
C          2.84026        8.82276       -6.90371
C          1.71966        7.99106       -6.26726
C          3.91579        9.17840       -5.87447
H          3.29185        8.24213       -7.73577
H          2.39933        9.75730       -7.31540
H          3.45994        9.75236       -5.03759
H          4.36555        8.24744       -5.46952
C          5.01519       10.03341       -6.50567
H          1.23247        8.57399       -5.45734
H          5.50236        9.48662       -7.34135
H          4.59242       10.98560       -6.89335
H          5.78530       10.27526       -5.74296
C          5.81159        1.44786       -4.25779
C          6.82515        1.78737       -5.13010
C          6.50853        3.03265       -5.65241
C          5.29126        3.37193       -5.10230
N          4.93694        2.46632       -4.20113
C          4.42265        4.56723       -5.39134
N          2.98150        4.31604       -5.07902
C          2.16024        3.43740       -5.96048
H          7.71182        1.20266       -5.33309
H          5.75084        0.55943       -3.64419
H          7.09624        3.61574       -6.34787
H          4.55890        4.92610       -6.42553
H          4.77701        5.39052       -4.72883
C          2.49441        1.94585       -5.75316
C          0.67427        3.69022       -5.61647
C          2.30306        3.75949       -7.46098
H          2.42534        1.65298       -4.68666
H          1.78825        1.30128       -6.31645
H          3.50603        1.70240       -6.13499
H          0.38365        4.72991       -5.86987
H          0.00694        2.99119       -6.16167
H          0.44054        3.60074       -4.55320
H          1.96615        4.79468       -7.67601
H          3.34152        3.61992       -7.81595
H          1.65664        3.06565       -8.04395
