110
speciation2343.ct
Na         5.57018        1.92851        3.13690
Mg         2.44861        4.80581       -0.86435
C          7.93882        3.27936        4.69599
C          6.00122        2.95446        5.99191
O          6.52602        3.32198        4.72656
C          8.42648        3.70438        3.31814
C          6.32272        1.51725        6.42651
H          8.35746        3.99161        5.44177
H          8.32934        2.25609        4.87547
H          6.30509        3.68395        6.77432
H          4.89641        3.03248        5.90967
H          7.39902        1.39529        6.66509
H          5.75726        1.27983        7.35230
H          6.03058        0.79604        5.63459
H          8.05250        4.72005        3.07150
H          9.53747        3.71501        3.30259
H          8.06780        2.98647        2.54948
H         -0.09426        5.20444       -0.10529
C          0.25748        7.32329       -0.27226
C          0.75395        5.89746        0.06866
C         -0.14798        7.46552       -1.74585
H         -0.62721        7.54541        0.36794
H          1.04649        8.06248       -0.02373
H          0.73459        7.26671       -2.38742
H         -0.94914        6.73176       -1.98692
C         -0.67914        8.87222       -2.05272
H          0.95991        5.87062        1.16050
H         -1.59395        9.08951       -1.45772
H          0.08938        9.64161       -1.82200
H         -0.93941        8.94581       -3.12770
C          4.97990       -0.77600        1.42170
C          4.63239       -1.29099        0.21073
C          4.04237       -0.25242       -0.48457
C          3.98335        0.85296        0.35377
N          4.59375        0.50501        1.51298
C          3.49554        2.29055        0.11861
N          2.74550        2.67144       -1.12430
C          1.41362        2.01357       -1.36744
H          4.84882       -2.27722       -0.15081
H          5.54233       -1.30286        2.20715
H          3.77893       -0.34718       -1.52507
H          2.90264        2.57760        1.00269
H          4.37077        2.95917        0.21529
C          0.47322        1.85800       -0.12066
C          0.69387        2.90215       -2.36325
C          1.55540        0.64679       -2.07547
H         -0.44673        2.47107       -0.21328
H          0.10801        0.81166       -0.03084
H          0.91527        2.11311        0.85071
H          1.35553        3.00062       -3.21101
H         -0.26638        2.45846       -2.69929
H          0.50825        3.90895       -1.95034
H          2.32338        0.69150       -2.88425
H          1.74407       -0.16740       -1.35748
H          0.60828        0.31843       -2.55034
Na         4.47415        2.58696       -6.38309
Mg         3.69288        2.47788       -3.01950
C          6.36141        2.28936       -1.95399
C          6.16977        0.68204       -3.65160
O          5.53845        1.76809       -2.98087
C          7.56268        3.06460       -2.49653
C          5.25644        0.02860       -4.67164
H          5.75735        3.02214       -1.40113
H          6.67234        1.50738       -1.22011
H          7.05091        1.04566       -4.22575
H          6.48035       -0.11086       -2.93266
H          4.97585        0.75482       -5.44702
H          5.80111       -0.80054       -5.17326
H          4.34599       -0.37251       -4.18445
H          7.22241        3.79993       -3.25197
H          8.06349        3.60603       -1.66706
H          8.30797        2.38447       -2.95637
H          4.46828        6.59243       -1.53842
C          4.60610        6.99179        0.54506
C          3.74827        6.68350       -0.69590
C          3.80001        7.12253        1.84068
H          5.31136        6.14362        0.66182
H          5.20485        7.92284        0.39478
H          3.10777        7.99750        1.83099
H          3.19718        6.19938        1.93561
C          4.74554        7.20565        3.04984
H          3.13005        7.57897       -0.91398
H          5.64735        6.57336        2.89434
H          5.08342        8.24824        3.23033
H          4.23714        6.81728        3.95751
C          1.27605       -0.64195       -6.38764
C          0.07811       -0.32105       -5.78634
C          0.15837        1.00841       -5.40856
C          1.35801        1.48272       -5.76471
N          2.13090        0.47470       -6.38852
C          1.76007        2.92817       -5.65442
N          3.04070        3.20933       -4.93129
C          3.33604        4.67363       -4.87680
H         -0.76924       -0.97996       -5.66519
H          1.51631       -1.60701       -6.81625
H         -0.64404        1.57989       -4.96121
H          0.90818        3.49275       -5.22906
H          1.85839        3.24747       -6.71011
C          2.37658        5.43073       -3.93202
C          4.75652        4.83710       -4.32587
C          3.28052        5.34420       -6.27378
H          2.44399        5.02462       -2.90812
H          2.64986        6.50682       -3.88281
H          1.32214        5.38853       -4.27083
H          5.48866        4.31480       -4.97564
H          5.03779        5.91151       -4.27062
H          4.81897        4.41597       -3.30146
H          3.94548        4.81726       -6.98838
H          2.24907        5.36671       -6.68591
H          3.60450        6.40523       -6.21123
