110
speciation1947.ct
Na         0.89774       -0.31771       -0.03692
Mg         0.81670        3.41943        0.60231
C          0.92853       -1.76243        2.97169
C         -1.24220       -0.99375        2.61823
O          0.12791       -0.88972        2.16689
C          0.51256       -3.24914        2.93189
C         -1.49833       -0.43358        4.04032
H          1.98580       -1.66974        2.66192
H          0.93759       -1.41364        4.02934
H         -1.90066       -0.49530        1.96286
H         -1.69528       -1.98722        2.47390
H         -1.07839        0.58825        4.14808
H         -2.58949       -0.38345        4.25195
H         -1.06837       -1.09130        4.82544
H          0.60463       -3.62975        1.90447
H          1.14854       -3.85128        3.60762
H         -0.51761       -3.43393        3.29857
H         -0.17779        2.78714        3.20899
C          1.53971        3.91489        3.79072
C          0.83663        2.97244        2.81281
C          0.74235        5.20654        3.96490
H          1.61550        3.42638        4.79100
H          2.57255        4.12195        3.43339
H          0.59170        5.69422        2.98576
H         -0.26582        4.97858        4.37372
C          1.46837        6.15247        4.91615
H          1.32273        1.98858        2.91268
H          1.54313        5.69402        5.92595
H          2.49214        6.36473        4.53960
H          0.90982        7.10762        4.99446
C         -0.95835        0.84460       -5.06596
C          0.32277        0.35988       -5.20811
C          1.06041        0.90511       -4.17685
C          0.17281        1.64582       -3.39615
N         -1.02476        1.69385       -4.01985
C          0.55663        2.28380       -2.05130
N         -0.04335        1.91555       -0.69280
C         -1.50247        2.25270       -0.58562
H          0.67099       -0.36250       -5.93592
H         -1.80843        0.56532       -5.67655
H          2.09912        0.69273       -3.95621
H          0.61207        3.37556       -2.19341
H          1.55446        1.90690       -2.00682
C         -2.31713        1.17377       -1.33926
C         -2.08877        2.17288        0.83014
C         -1.73375        3.76023       -0.91149
H         -2.27479        0.20397       -0.79929
H         -3.37453        1.46708       -1.48613
H         -1.89560        0.81944       -2.24629
H         -1.61424        2.80278        1.59325
H         -3.18198        2.40394        0.81691
H         -2.03054        1.18362        1.14941
H         -1.31619        4.37754       -0.07128
H         -1.26889        4.15813       -1.82078
H         -2.81520        3.99210       -0.96789
Na        -2.78193        2.73236       -3.38435
Mg         4.28053       -0.85941        1.52453
C          0.49056       -3.37212       -1.27738
C          0.43176       -1.81230       -2.97439
O          0.15455       -2.03366       -1.59634
C          1.95726       -3.70475       -1.56558
C         -0.32695       -2.63238       -4.06816
H          0.27404       -3.49124       -0.21254
H         -0.18294       -4.11094       -1.77064
H          0.04526       -0.83734       -3.09494
H          1.52476       -1.81584       -3.19462
H         -1.32047       -2.18655       -4.29220
H          0.24670       -2.59068       -5.02802
H         -0.44592       -3.71138       -3.86735
H          2.55717       -2.84266       -1.23523
H          2.26032       -4.63325       -1.04923
H          2.13637       -3.85266       -2.65529
H          1.66356        5.61320       -0.97515
C          2.58875        6.20816        0.88235
C          1.38961        5.61075        0.10457
C          2.99955        7.63517        0.46607
H          2.35326        6.24155        1.95467
H          3.47046        5.55742        0.74767
H          3.29384        7.66093       -0.60593
H          2.15834        8.34593        0.62139
C          4.19617        8.09823        1.30842
H          0.51514        6.28967        0.21304
H          3.94190        8.08549        2.39114
H          5.06412        7.42403        1.14139
H          4.49425        9.13158        1.03113
C          5.42131       -1.78313        4.38291
C          6.02039       -2.97376        4.58219
C          6.00645       -3.55084        3.30504
C          5.40911       -2.56801        2.48261
N          5.11039       -1.75418        3.09641
C          4.56448       -1.61729        0.60758
N          3.45067        0.03536       -0.04736
C          4.02785        1.36827        0.27662
H          6.36880       -3.32100        5.54507
H          5.19024       -0.97900        5.07874
H          6.38396       -4.52945        3.07046
H          5.52052       -1.45227        0.07391
H          4.19824       -2.45952        0.03443
C          5.36154        1.57567       -0.44291
C          3.12807        2.48053       -0.21345
C          4.15066        1.54325        1.78842
H          5.19928        1.50525       -1.54574
H          5.75129        2.59723       -0.22992
H          6.10007        0.81741       -0.14320
H          2.13571        2.23213        0.15729
H          3.41186        3.47396        0.16594
H          3.22044        2.61130       -1.30561
H          3.16702        1.34981        2.23498
H          4.87627        0.84870        2.23491
H          4.46845        2.57988        2.03966
