110
speciation2514.ct
Na         5.40536       -0.85227       -2.39265
Mg         7.57445        5.78058       -4.04794
C          7.47330        9.04385       -4.33939
C          9.23136        7.95762       -5.36606
O          8.10517        7.76415       -4.53350
C          6.79849        9.65089       -5.57523
C         10.07792        6.73553       -5.33011
H          6.70232        8.98841       -3.58120
H          8.19657        9.77829       -3.90776
H          8.93288        8.14672       -6.41661
H          9.88424        8.78256       -4.98664
H          9.48858        5.86621       -5.68547
H         10.97150        6.86480       -5.97340
H         10.38847        6.61781       -4.27529
H          6.00156        8.97919       -5.95015
H          6.33796       10.62515       -5.29166
H          7.52701        9.86961       -6.38098
H          9.94191        4.85992       -2.27830
C         10.63585        3.88118       -4.04724
C          9.45576        4.40245       -3.16251
C         11.56263        2.84593       -3.36579
H         10.23691        3.42424       -4.97481
H         11.29118        4.71905       -4.32875
H         11.97579        3.26697       -2.42472
H         11.00376        1.91487       -3.12329
C         12.74716        2.48476       -4.27996
H          8.94658        3.50832       -2.74503
H         12.39604        2.00072       -5.21665
H         13.32468        3.39677       -4.54749
H         13.44016        1.78433       -3.76478
C          5.65521        3.94941        1.47906
C          5.56158        3.16303        2.59683
C          5.22085        1.91441        2.15803
C          5.16182        2.00876        0.77472
N          5.37130        3.26174        0.33547
C          4.93933        0.83190       -0.09177
N          6.06169        0.65695       -1.02345
C          7.39404        0.28191       -0.50403
H          5.73763        3.46399        3.61733
H          5.93998        4.97373        1.54782
H          5.09346        1.03582        2.76044
H          4.03517        1.01848       -0.66284
H          4.74891       -0.09458        0.48422
C          7.31311       -0.99317        0.34965
C          8.28145        0.02852       -1.73198
C          8.07024        1.41970        0.30431
H          6.85324       -1.81437       -0.23918
H          8.32451       -1.29930        0.68153
H          6.70151       -0.81846        1.25960
H          8.34544        0.94839       -2.35779
H          9.31133       -0.24806       -1.42573
H          7.86267       -0.78331       -2.35970
H          8.10681        2.36354       -0.28150
H          7.58417        1.61799        1.27082
H          9.11063        1.14523        0.56233
Na         6.50992        2.47405       -1.91960
Mg         5.27079        3.96991       -1.73806
C          7.10995        5.35389       -7.09840
C          6.77012        3.39344       -5.90284
O          6.96641        4.80614       -5.78780
C          5.77596        5.38814       -7.86689
C          7.10290        2.69937       -4.62611
H          7.48365        6.38893       -7.03108
H          7.86672        4.79288       -7.69673
H          5.71381        3.16372       -6.13100
H          7.42387        2.91105       -6.67408
H          6.58362        3.25106       -3.82848
H          6.80414        1.63038       -4.65845
H          8.18360        2.70891       -4.50604
H          5.06580        6.06385       -7.35438
H          5.92647        5.76449       -8.89877
H          5.32285        4.37704       -7.96290
H          4.47466        2.44863       -4.16260
C          2.57604        2.42533       -3.21113
C          4.11732        2.40696       -3.11701
C          1.89774        2.30082       -1.84667
H          2.24780        3.36907       -3.68670
H          2.23352        1.57947       -3.85328
H          0.79436        2.33668       -1.95203
H          2.12793        1.31264       -1.40648
C          2.34766        3.43673       -0.93744
H          4.41542        1.39324       -2.79625
H          3.43731        3.46575       -0.91447
H          2.01345        4.41286       -1.34023
H          1.98483        3.29048        0.09843
C          3.37787        4.73678       -5.84736
C          2.62261        5.88604       -5.88689
C          3.08281        6.70853       -4.88235
C          4.09079        6.08883       -4.26271
N          4.33774        4.83543       -4.82671
C          4.79391        6.66688       -3.09238
N          5.92805        5.87065       -2.52917
C          6.35438        6.48195       -1.21158
H          1.81545        6.09406       -6.57796
H          3.27187        3.88681       -6.50470
H          2.68684        7.68481       -4.62600
H          3.96180        6.76956       -2.36471
H          5.13110        7.66364       -3.37843
C          5.15386        6.56116       -0.20744
C          7.46771        5.61211       -0.64622
C          6.90460        7.91983       -1.26434
H          4.58970        5.60834       -0.16734
H          5.49279        6.88125        0.79889
H          4.41342        7.34748       -0.45497
H          8.34695        5.75618       -1.28354
H          7.76713        5.92821        0.37565
H          7.21034        4.54596       -0.65955
H          7.79881        7.98356       -1.90825
H          6.12349        8.65144       -1.55585
H          7.22812        8.23988       -0.24532
