95
speciation1169.ct
Na         4.85437        4.66255        1.86301
Mg         3.73551        2.12115       -2.91533
C          5.70611        4.80622        4.84752
C          5.97813        2.58831        4.09035
O          5.24134        3.78954        3.97736
C          7.12702        5.29679        4.54429
C          5.44488        1.56742        3.09699
H          5.02221        5.67149        4.71516
H          5.60420        4.49771        5.91096
H          7.05584        2.72782        3.86599
H          5.84546        2.16697        5.11170
H          5.62604        1.91683        2.05809
H          5.96930        0.59874        3.24385
H          4.35625        1.41423        3.24855
H          7.21651        5.58731        3.47666
H          7.35169        6.18097        5.17739
H          7.88455        4.52419        4.78659
H          5.19691        4.48271       -2.79677
C          6.64759        3.54984       -4.02038
C          5.58052        3.45457       -2.91553
C          6.06828        4.14261       -5.32046
H          7.45940        4.24637       -3.68397
H          7.07773        2.56018       -4.18916
H          5.19109        3.54666       -5.64070
H          5.74582        5.19714       -5.15247
C          7.10449        4.10587       -6.44329
H          6.11229        3.20288       -1.97181
H          8.00830        4.69355       -6.17497
H          7.40140        3.05421       -6.64568
H          6.66751        4.53213       -7.37118
C          5.10013        6.61932       -0.81423
C          4.43132        7.07646       -1.92996
C          3.34040        6.25954       -2.09499
C          3.40111        5.30423       -1.09865
N          4.45905        5.55439       -0.29691
C          2.34075        4.26712       -0.85836
N          2.76431        2.85193       -1.06911
C          1.70801        1.90245       -0.61249
H          4.67133        7.94635       -2.52355
H          5.95913        7.09396       -0.36169
H          2.56165        6.38215       -2.82971
H          2.00255        4.43536        0.18420
H          1.49640        4.49299       -1.53808
C          0.38360        2.08952       -1.39630
C          2.22657        0.53564       -0.91740
C          1.44853        1.94261        0.91199
H          0.58206        2.07932       -2.49049
H         -0.32733        1.26721       -1.16379
H         -0.11878        3.04158       -1.13673
H          3.20638        0.35946       -0.41851
H          1.52074       -0.28168       -0.66057
H          2.31990        0.59847       -1.99191
H          2.39564        1.79095        1.47399
H          0.97369        2.88421        1.24302
H          0.74857        1.12424        1.19728
Na         2.06014       -2.18824       -5.71843
Mg         1.22789        0.12038       -3.51510
H          3.23874       -0.93729       -2.89943
C          4.94431       -1.28989       -3.94876
C          4.21651       -0.39957       -2.92706
C          6.37512       -0.83814       -4.18463
H          4.92610       -2.36695       -3.64294
H          4.39754       -1.25264       -4.90341
H          6.74495       -1.31132       -5.11844
H          6.36506        0.26108       -4.31637
C          7.32697       -1.25542       -3.06246
H          4.69048       -0.61764       -1.94413
H          6.98979       -0.89744       -2.06911
H          7.41918       -2.36487       -3.03498
H          8.32977       -0.83090       -3.27334
C          2.37155        4.01808       -4.88782
C          1.78699        4.20765       -6.11840
C          1.69833        2.97308       -6.69432
C          2.21416        2.07790       -5.76985
N          2.65985        2.72417       -4.64643
C          2.34180        0.63278       -6.06525
N          1.33081       -0.20480       -5.41027
C         -0.07984       -0.20538       -5.88813
H          1.44784        5.12778       -6.56290
H          2.60943        4.80881       -4.21013
H          1.31322        2.72385       -7.67439
H          2.37562        0.43778       -7.15077
H          3.34609        0.36484       -5.69185
C         -0.22811       -0.60253       -7.38917
C         -0.79109       -1.27841       -5.05117
C         -0.80529        1.13221       -5.60771
H         -0.65641        0.22239       -8.00194
H         -0.96760       -1.42242       -7.51932
H          0.71320       -0.98562       -7.83042
H         -0.74192       -1.03134       -3.96982
H         -1.86174       -1.35488       -5.34575
H         -0.31406       -2.26664       -5.21607
H         -0.65276        1.45830       -4.55709
H         -0.47666        1.93751       -6.27965
H         -1.89585        1.03579       -5.79528
