68
speciation129.ct
Na         1.95209        1.16200       -1.45123
Mg         3.97819        2.82849       -2.65885
C          6.50849        2.58701       -1.60380
C          6.68060        2.77887       -3.95177
O          5.88538        2.33444       -2.85196
C          6.97148        4.02785       -1.37929
C          7.95237        1.93452       -4.13897
H          5.74492        2.40986       -0.85515
H          7.30373        1.84500       -1.37999
H          6.11378        2.67759       -4.88315
H          6.92422        3.85708       -3.89163
H          7.68896        0.87811       -4.35924
H          8.54525        2.33580       -4.98860
H          8.60320        1.96345       -3.24124
H          6.16685        4.72386       -1.68804
H          7.20859        4.17933       -0.30645
H          7.88576        4.25174       -1.96317
C         -0.58006        1.91385       -2.13203
C         -1.22154        1.07489       -3.00718
C         -0.36752        0.90210       -4.08231
C          0.74188        1.69544       -3.84372
N          0.63622        2.19108       -2.61047
C          1.98894        1.71933       -4.70118
N          2.92812        2.87379       -4.51408
C          2.67884        4.13182       -5.35097
H         -2.16636        0.58400       -2.83119
H         -0.91277        2.15777       -1.13132
H         -0.51869        0.23039       -4.91645
H          1.65455        1.66649       -5.74811
H          2.55039        0.77602       -4.54716
C          1.35080        4.83442       -4.99842
C          3.87000        5.10859       -5.15524
C          2.62759        3.82685       -6.85816
H          1.32832        5.32518       -4.02526
H          1.16547        5.67779       -5.70218
H          0.48350        4.14225       -5.08123
H          4.80974        4.64335       -5.48920
H          3.69935        6.02716       -5.76416
H          4.02413        5.46874       -4.13292
H          3.55089        3.33857       -7.22462
H          1.74160        3.23099       -7.15631
H          2.52833        4.78205       -7.42743
Na         4.38306        1.93312       -5.74336
C          4.05093       -1.00413       -0.39070
C          5.13334       -0.91976        0.46489
C          5.15844        0.37566        0.94072
C          4.08395        1.01732        0.36085
N          3.43607        0.19304       -0.45012
C          3.63285        2.42446        0.57948
N          3.21421        3.11148       -0.67156
C          2.63538        4.46046       -0.42532
H          5.83172       -1.71106        0.70546
H          3.74865       -1.87942       -0.95436
H          5.87155        0.80496        1.63224
H          2.75185        2.33110        1.24288
H          4.43284        2.96986        1.11423
C          3.66660        5.40746        0.21262
C          2.25256        5.01196       -1.77116
C          1.34277        4.43252        0.42883
H          4.58396        5.44624       -0.39806
H          3.25744        6.43871        0.28034
H          3.92679        5.09357        1.24141
H          1.39159        4.44315       -2.14898
H          1.97236        6.08939       -1.72887
H          3.10736        4.87451       -2.43069
H          0.58371        3.76273       -0.03001
H          1.52010        4.10533        1.47003
H          0.89828        5.45217        0.48023
