96
speciation1112.ct
Na         1.40744        2.02230        0.20082
Mg         4.68227       -4.66063       -1.55876
C          1.12918        4.83895        0.80821
C          2.77129        4.34700       -0.86726
O          2.12084        3.94195        0.32408
C          0.09211        5.31240       -0.21897
C          3.75841        5.48498       -0.61275
H          0.57340        4.29394        1.60030
H          1.60505        5.70504        1.31593
H          3.36336        3.48095       -1.23041
H          2.06574        4.58762       -1.68719
H          4.50272        5.17691        0.15211
H          4.29263        5.73067       -1.55477
H          3.23073        6.39619       -0.26368
H         -0.37443        4.44235       -0.72600
H         -0.69905        5.89329        0.30081
H          0.54907        5.99181       -0.96826
H          7.33883       -4.32260       -1.86559
C          7.42512       -6.10822       -0.65488
C          6.77882       -4.75838       -1.01135
C          7.37967       -7.11341       -1.81392
H          8.49180       -5.93345       -0.39874
H          6.92469       -6.54212        0.23662
H          7.90750       -6.69518       -2.69867
H          7.90957       -8.04153       -1.50303
C          5.95022       -7.47988       -2.19482
H          6.90394       -4.07717       -0.14328
H          5.43041       -7.92660       -1.32129
H          5.40144       -6.57833       -2.53034
H          5.95784       -8.21625       -3.02408
C         -1.65987        1.14167        0.03456
C         -2.32352       -0.06264       -0.10131
C         -1.36052       -1.04445       -0.19104
C         -0.14816       -0.39136       -0.09933
N         -0.33326        0.92479        0.03142
C          1.21003       -1.01707       -0.13199
N          2.24500        0.03300       -0.00400
C          3.19965       -0.11523        1.11464
H         -3.39642       -0.20810       -0.12818
H         -2.11692        2.11629        0.13779
H         -1.51855       -2.10716       -0.30174
H          1.35210       -1.54407       -1.10031
H          1.25661       -1.77064        0.67456
C          4.00157       -1.43158        1.00582
C          4.19512        1.05407        1.01903
C          2.47148       -0.03433        2.47354
H          4.53573       -1.47943        0.03333
H          4.75471       -1.49012        1.82163
H          3.35522       -2.32772        1.08982
H          3.66668        2.02602        1.08006
H          4.93773        1.01511        1.84473
H          4.74381        1.01948        0.05254
H          1.87979        0.90394        2.53997
H          1.78305       -0.88972        2.62662
H          3.20445       -0.04922        3.30850
Mg         3.38218        0.08335       -1.63630
C          2.29338       -6.47374       -1.10639
C          3.61199       -6.07258        0.81921
O          3.58431       -6.09401       -0.60566
C          1.15772       -5.51835       -0.70792
C          3.35728       -7.45605        1.45934
H          2.32797       -6.58241       -2.19854
H          2.03669       -7.52020       -0.85554
H          4.62339       -5.75570        1.13987
H          2.90897       -5.31883        1.22869
H          4.13089       -8.18308        1.13680
H          3.38245       -7.36852        2.56459
H          2.35566       -7.86794        1.21486
H          1.44126       -4.46454       -0.89373
H          0.24075       -5.76112       -1.28433
H          0.90720       -5.62927        0.36673
C          4.50380        1.10865       -4.19462
C          5.41387        0.83013       -5.19189
C          6.01585       -0.36776       -4.85579
C          5.43128       -0.77558       -3.66601
N          4.51935        0.13370       -3.26860
C          5.72035       -2.06698       -2.93298
N          4.50124       -2.91110       -2.77167
C          3.83757       -3.35499       -4.02214
H          5.60537        1.42951       -6.07203
H          3.85638        1.97409       -4.14865
H          6.76915       -0.89022       -5.42928
H          6.52393       -2.63126       -3.45151
H          6.11092       -1.80378       -1.92771
C          4.80607       -4.12933       -4.94167
C          2.75516       -4.29168       -3.56794
C          3.12617       -2.23088       -4.81428
H          5.30156       -4.95039       -4.38016
H          4.25510       -4.57123       -5.79879
H          5.58933       -3.46190       -5.35496
H          2.05412       -3.76120       -2.88938
H          2.18411       -4.73219       -4.40983
H          3.30020       -5.07557       -3.04359
H          2.47654       -1.62462       -4.14734
H          3.81818       -1.57704       -5.36292
H          2.49038       -2.67174       -5.61195
