110
speciation2527.ct
Na        -0.10493        1.41856       -0.05100
Mg         2.98919        8.78335       -0.72040
C          4.12520        9.66256        2.15265
C          4.16035        7.31399        1.82087
O          3.82448        8.59538        1.25472
C          5.61992        9.76673        2.52427
C          3.56566        7.04523        3.24672
H          3.77096       10.60541        1.72795
H          3.50880        9.59430        3.08398
H          3.76312        6.53453        1.13966
H          5.25570        7.14189        1.82479
H          2.48577        7.28213        3.34039
H          3.68479        5.97788        3.52100
H          4.07274        7.64587        4.02971
H          6.23863        9.91629        1.61865
H          5.78861       10.61128        3.22357
H          5.97474        8.85851        3.05419
H          5.44579        8.67598       -1.82537
C          4.32260        7.95307       -3.53943
C          4.54720        8.05518       -2.01948
C          5.53315        7.31370       -4.24960
H          3.43237        7.32905       -3.74242
H          4.14481        8.96952       -3.94926
H          6.44021        7.92416       -4.05458
H          5.70598        6.28606       -3.85805
C          5.32927        7.22324       -5.76432
H          4.71779        7.03303       -1.61940
H          4.46772        6.56583       -6.00946
H          5.15257        8.23224       -6.19314
H          6.23931        6.79672       -6.24044
C         -1.67459        3.59236       -2.53275
C         -1.81411        4.34051       -3.66305
C         -0.92218        5.34859       -3.57958
C         -0.27024        5.30163       -2.35402
N         -0.62918        4.00073       -1.77535
C          0.72148        6.63652       -2.34410
N          1.43384        7.27432       -1.18154
C          0.38583        7.41395       -0.02206
H         -2.46401        4.14795       -4.50178
H         -2.23446        2.69315       -2.33731
H         -0.73396        6.06743       -4.37485
H          0.04808        7.45928       -2.67851
H          1.43616        6.56153       -3.18650
C         -0.07332        6.07822        0.58703
C          1.05300        8.10826        1.13650
C         -1.00645        8.09219       -0.27560
H          0.79914        5.55330        0.89920
H         -0.63199        6.20490        1.53955
H         -0.80574        5.53822       -0.02121
H          1.48546        9.08275        0.88560
H          0.41603        8.19187        2.04536
H          1.83081        7.41819        1.38261
H         -1.08432        9.13331       -0.47162
H         -1.60807        7.58211       -1.04801
H         -1.60724        8.04612        0.66864
Na         2.18628        5.02694       -1.18494
Mg         4.03867        2.45076       -2.81378
C          3.66214       11.55091       -1.67736
C          1.48078       11.74147       -0.98946
O          2.53204       10.79341       -1.24674
C          4.28448       12.42966       -0.57926
C          0.17445       11.09530       -0.75089
H          4.42488       10.85366       -2.05847
H          3.40341       12.19267       -2.55639
H          1.66479       12.37845       -0.10033
H          1.29084       12.37093       -1.89333
H          0.22529       10.60954        0.23764
H         -0.65081       11.83642       -0.68684
H         -0.00409       10.41968       -1.61383
H          4.58974       11.80653        0.26593
H          5.18750       12.93897       -0.96329
H          3.60127       13.22967       -0.22130
H          5.58291        3.08938       -4.81008
C          4.44189        1.43319       -5.63430
C          5.16626        2.11370       -4.48007
C          3.29790        2.29776       -6.17167
H          5.17318        1.25445       -6.45254
H          4.04978        0.45459       -5.28202
H          2.55923        2.49266       -5.38147
H          3.68915        3.27802       -6.51706
C          2.58939        1.60138       -7.32733
H          6.00841        1.47162       -4.14618
H          3.30104        1.43452       -8.16274
H          2.17774        0.62366       -6.99544
H          1.75256        2.23530       -7.68835
C          3.23159       -0.70060        0.90828
C          4.62143       -0.65182        0.89191
C          4.96334        0.62962        0.63181
C          3.75033        1.32385        0.47033
N          2.65700        0.54390        0.68339
C          3.77258        2.70019        0.03420
N          2.93871        2.77956       -1.18833
C          1.63925        2.26760       -1.29290
H          5.33736       -1.46689        0.96057
H          2.66264       -1.60989        0.97668
H          5.97232        1.03237        0.47067
H          3.44532        3.32855        0.86895
H          4.78215        3.07274       -0.20697
C          1.08250        3.08496        0.02361
C          1.29201        2.64414       -2.74921
C          1.51568        0.65608       -1.54970
H          1.60266        3.95359        0.27504
H          0.02280        3.32116        0.23558
H          1.34504        2.51173        0.94549
H          1.87614        2.04956       -3.47087
H          0.27272        2.29379       -3.00632
H          1.49175        3.69066       -3.01047
H          2.42550        0.27508       -2.07720
H          1.22729       -0.06934       -0.76776
H          0.65496        0.36370       -2.18349
