95
speciation1399.ct
Na         0.83520        7.98814       -1.03296
Mg         4.70796        4.50826       -0.95992
C          0.99020       10.59555       -2.75882
C          1.45913       11.06967       -0.49554
O          0.72422       10.27552       -1.40442
C          2.42004       10.29801       -3.20577
C          1.11217       10.65806        0.92747
H          0.31626        9.96164       -3.37323
H          0.71176       11.64826       -2.98232
H          2.55444       10.93730       -0.61452
H          1.17916       12.14007       -0.61664
H          1.41815        9.60439        1.10304
H          1.65211       11.31060        1.64656
H          0.02014       10.75601        1.10211
H          2.66682        9.24353       -2.97244
H          2.51046       10.44952       -4.30124
H          3.14127       10.98733       -2.72181
H          6.24320        3.24677       -2.84427
C          4.38703        2.11758       -2.73207
C          5.51957        2.90198       -2.07576
C          3.68800        2.98662       -3.77541
H          4.78476        1.20441       -3.22878
H          3.67270        1.80769       -1.93808
H          3.39628        3.94347       -3.31320
H          4.39525        3.21728       -4.59993
C          2.44874        2.29800       -4.34260
H          6.05243        2.23494       -1.36459
H          2.72356        1.33300       -4.81801
H          1.70692        2.10937       -3.53609
H          1.97831        2.95270       -5.10630
C          3.74052        2.65695        1.15210
C          2.79793        2.54259        2.15804
C          2.00250        3.66044        2.07082
C          2.44592        4.38178        0.97860
N          3.54193        3.78898        0.45188
C          1.86689        5.69873        0.51037
N          0.94857        5.65146       -0.65349
C         -0.42477        5.10147       -0.39412
H          2.71494        1.74898        2.89112
H          4.54020        1.95308        0.97092
H          1.17412        3.90796        2.72345
H          2.70433        6.31921        0.20582
H          1.44285        6.26944        1.35667
C         -1.13074        5.85944        0.75374
C         -1.25331        5.27646       -1.67820
C         -0.43522        3.58516       -0.09054
H         -1.18248        6.94562        0.53346
H         -2.16332        5.47478        0.89815
H         -0.61213        5.71246        1.72498
H         -0.79813        4.69814       -2.51084
H         -2.28553        4.88824       -1.52369
H         -1.31946        6.34331       -1.96924
H          0.11832        3.00732       -0.86059
H         -0.04631        3.33652        0.89649
H         -1.47760        3.20217       -0.04676
Na         1.68846        4.67819       -2.34756
Mg         5.62114        6.89696       -6.12904
H          6.09261        5.20923       -7.99949
C          5.65265        6.96390       -9.15878
C          5.37101        6.05286       -7.96930
C          4.70680        8.16476       -9.19992
H          6.70413        7.31876       -9.09473
H          5.53345        6.36849      -10.09089
H          3.65490        7.81001       -9.25831
H          4.83125        8.77337       -8.27795
C          4.99959        9.03595      -10.42097
H          4.34201        5.63800       -8.02243
H          6.03958        9.42498      -10.37937
H          4.87191        8.44652      -11.35480
H          4.29809        9.89572      -10.44755
C          4.96376        7.23568        0.10636
C          4.95329        8.57547       -0.19902
C          4.90745        8.66523       -1.57209
C          4.90859        7.36615       -2.04824
N          4.90876        6.48893       -1.01948
C          4.91029        6.96030       -3.49268
N          5.86513        7.72036       -4.33389
C          7.32660        7.68373       -3.97678
H          4.97317        9.40886        0.50229
H          4.96386        6.82708        1.10812
H          4.90612        9.57245       -2.15053
H          5.09105        5.86655       -3.57906
H          3.89828        7.15806       -3.89542
C          7.86859        6.24541       -3.91698
C          8.09519        8.46706       -5.05755
C          7.67278        8.38438       -2.63490
H          7.70769        5.72782       -4.88054
H          8.96255        6.25839       -3.69715
H          7.38100        5.67270       -3.10118
H          7.73022        9.51702       -5.10617
H          9.18323        8.50162       -4.81774
H          7.97393        7.99702       -6.05124
H          7.28530        9.42320       -2.61206
H          7.32956        7.82083       -1.74569
H          8.77130        8.44913       -2.48852
