110
speciation2342.ct
Na         4.58349        3.51532        3.62109
Mg         2.46297        4.78193       -0.74724
C          4.87993        2.98114        6.63868
C          2.64227        3.51394        6.15863
O          3.95294        3.36411        5.63914
C          4.72860        1.51119        7.03766
C          1.73076        4.19066        5.15143
H          5.90187        3.13581        6.23643
H          4.81512        3.64270        7.53476
H          2.19704        2.52510        6.40019
H          2.64547        4.17387        7.06049
H          1.63475        3.56185        4.24060
H          0.72431        4.32207        5.60273
H          2.13270        5.18953        4.87716
H          4.83006        0.86523        6.14110
H          5.51389        1.24059        7.77452
H          3.74434        1.32587        7.51418
H          4.48650        5.84097        0.40934
C          3.97972        7.76728       -0.15970
C          3.98530        6.28034       -0.45833
C          3.27904        8.06380        1.16424
H          5.04134        8.10321       -0.08151
H          3.49895        8.31000       -0.99929
H          2.22491        7.73275        1.10477
H          3.78002        7.51245        1.99359
C          3.33274        9.55436        1.46753
H          4.62522        6.14312       -1.35321
H          4.38765        9.88631        1.58165
H          2.85808       10.12671        0.64256
H          2.78837        9.75998        2.41189
C          6.56527        4.59510        1.46627
C          6.91302        4.70888        0.13444
C          6.00362        3.95701       -0.57315
C          5.13847        3.41546        0.35579
N          5.46857        3.82394        1.60916
C          3.99576        2.49945        0.03110
N          3.24211        2.90853       -1.18422
C          2.04361        2.06736       -1.41172
H          7.73933        5.27344       -0.28038
H          7.09017        5.06925        2.28258
H          5.96513        3.82373       -1.64650
H          4.39357        1.47792       -0.09083
H          3.36702        2.49410        0.94003
C          1.05239        2.22509       -0.24345
C          1.33941        2.58356       -2.68734
C          2.37291        0.55954       -1.62538
H          0.96649        3.29663       -0.05732
H          0.05624        1.78561       -0.46593
H          1.40981        1.73634        0.68610
H          1.97231        2.39388       -3.57457
H          0.37881        2.04196       -2.84415
H          1.12473        3.66605       -2.61132
H          3.45552        0.38894       -1.79833
H          2.06086       -0.06506       -0.75647
H          1.85223        0.12615       -2.50860
Na         8.14626        0.75200        1.21844
Mg         4.35142        2.63327       -2.96307
C          4.16274        3.28585       -5.68530
C          4.03846        5.19452       -4.28597
O          3.77631        3.80789       -4.42682
C          5.65674        3.45746       -6.00822
C          3.23750        6.06125       -5.27143
H          3.88325        2.22477       -5.65292
H          3.52606        3.66009       -6.51285
H          3.70524        5.49077       -3.27588
H          5.12366        5.41614       -4.35135
H          2.14868        5.89153       -5.13461
H          3.46083        7.13327       -5.09146
H          3.50787        5.84988       -6.32659
H          6.28306        3.13493       -5.15122
H          5.92362        2.85549       -6.90159
H          5.88737        4.51629       -6.24542
H          0.71152        6.86844       -0.41790
C         -0.80163        5.34989       -0.68229
C          0.60182        5.93202       -1.00064
C         -1.01689        5.05955        0.81775
H         -1.57069        6.08506       -0.99656
H         -0.94648        4.42556       -1.28178
H         -0.26545        4.35591        1.20911
H         -0.93349        5.99136        1.40689
C         -2.39294        4.42541        1.06945
H          0.60940        6.21203       -2.07816
H         -3.20517        5.13153        0.79972
H         -2.50836        3.49174        0.47755
H         -2.49017        4.16614        2.14549
C          5.72812        0.41401       -4.68192
C          6.60012       -0.65004       -4.64799
C          7.04789       -0.73688       -3.36474
C          6.47066        0.30856       -2.67981
N          5.61773        1.01204       -3.47292
C          6.75726        0.60634       -1.26122
N          8.18258        0.42720       -0.90099
C          9.24225        1.30202       -1.45522
H          6.88524       -1.29184       -5.47234
H          5.22280        0.68568       -5.58555
H          7.75762       -1.45450       -2.97109
H          6.41859        1.59616       -1.01103
H          6.17726       -0.11382       -0.64732
C          8.98042        2.78401       -1.16390
C         10.54163        0.90599       -0.74962
C          9.43708        1.14391       -2.97686
H          8.83595        2.93094       -0.07324
H          9.84004        3.41301       -1.49237
H          8.10685        3.11665       -1.74423
H         10.76620       -0.16562       -0.94050
H         11.39863        1.51879       -1.10946
H         10.44608        1.05190        0.34791
H          9.64906        0.08603       -3.23806
H          8.55934        1.50030       -3.54341
H         10.29134        1.75978       -3.32458
