110
speciation2119.ct
Na         1.03732       -0.08822        0.02872
Mg         2.80469        4.70174        1.39583
C         -1.74132       -1.37184        0.42889
C         -1.81517        0.28663       -1.23401
O         -1.28268       -0.08822        0.02872
C         -1.36135       -2.52261       -0.51961
C         -1.25445        1.63037       -1.68492
H         -1.27229       -1.58599        1.41168
H         -2.83966       -1.35906        0.60448
H         -1.55035       -0.43031       -2.03778
H         -2.92009        0.38919       -1.15669
H         -0.16140        1.55322       -1.86959
H         -1.74607        1.92594       -2.63859
H         -1.44922        2.41554       -0.92658
H         -0.27005       -2.51634       -0.72286
H         -1.63592       -3.49161       -0.05307
H         -1.91998       -2.46968       -1.47729
H          4.27510        6.94095        0.00362
C          5.53360        5.23881        0.50442
C          4.36170        6.16362        0.79289
C          5.79365        4.49364       -0.82391
H          6.38962        5.29033        1.21371
H          5.09457        4.42430        1.02260
H          6.86526        4.17329       -0.77872
H          5.23147        3.54522       -0.86608
C          5.57584        5.27033       -2.12317
H          4.58977        6.71847        1.73405
H          5.17227        5.15851       -3.15382
H          6.16859        6.19500       -2.09247
H          6.07240        4.47744       -2.71052
C          2.41043        4.23483       -1.60453
C          2.63356        3.34468       -2.64191
C          3.01374        2.15486       -2.07209
C          3.00678        2.36072       -0.72237
N          2.68156        3.65157       -0.41923
C          3.37040        1.38214        0.31937
N          3.40732       -0.08822        0.02872
C          3.59580       -0.73796        1.45763
H          2.56602        3.54492       -3.70165
H          2.12935        5.27132       -1.72204
H          3.30937        1.25570       -2.57260
H          2.50942        1.56999        0.97634
H          4.30848        1.73664        0.75515
C          2.46694       -0.37004        2.48406
C          3.51573       -2.28972        1.54507
C          4.95896       -0.34932        2.12293
H          1.47459       -0.69880        2.11491
H          2.62517       -0.88224        3.46211
H          2.42509        0.68250        2.78662
H          4.30330       -2.79319        1.06905
H          3.68996       -2.62043        2.60480
H          2.54800       -2.73927        1.25533
H          5.81618       -0.54770        1.46505
H          5.01536        0.70581        2.43301
H          5.12480       -0.90819        3.07343
Na         5.23585        1.28040       -4.28500
Mg         4.86032       -0.51125       -1.05372
C          0.23646        4.63691        3.01794
C          0.51661        6.59353        1.79823
O          1.18374        5.48599        2.36381
C         -0.56854        3.80494        2.02275
C          1.52314        7.53321        1.18768
H          0.78373        3.96786        3.71291
H         -0.46348        5.19959        3.69332
H         -0.17857        6.27174        0.99819
H         -0.02268        7.17470        2.58517
H          2.03972        6.99142        0.37967
H          1.00060        8.39870        0.73749
H          2.24021        7.89259        1.95979
H          0.12281        3.40349        1.25764
H         -1.08391        2.96786        2.53946
H         -1.34853        4.42534        1.52987
H          3.19083        2.68235        3.24653
C          4.36309        4.33593        4.02522
C          3.81714        3.50471        2.87164
C          5.26641        3.51101        4.96196
H          4.95298        5.19134        3.62964
H          3.49825        4.74050        4.58885
H          5.54138        4.15319        5.82475
H          4.70879        2.62873        5.34292
C          6.57544        3.05085        4.29953
H          4.68141        3.03855        2.38616
H          6.40418        2.34970        3.46026
H          7.14505        3.92689        3.92170
H          7.20086        2.51408        5.04223
C          6.45656       -2.58413        0.02179
C          5.77270       -3.64052       -0.50262
C          5.54105       -3.27766       -1.76176
C          6.33396       -2.12353       -2.01894
N          6.45859       -1.59033       -0.89121
C          6.19405       -1.09838       -3.14316
N          4.83744       -0.56991       -3.24705
C          3.99218       -1.28746       -4.29630
H          5.31180       -4.47483        0.04457
H          6.63797       -2.51322        1.08209
H          4.72143       -3.74642       -2.18156
H          6.81084       -1.18146       -4.05021
H          6.73376       -0.20756       -2.71515
C          3.15266       -2.41881       -3.71426
C          2.96975       -0.32146       -4.94353
C          4.83251       -1.88358       -5.47144
H          2.66827       -2.11054       -2.76078
H          2.36649       -2.76319       -4.41332
H          3.73578       -3.33178       -3.73683
H          3.46340        0.48369       -5.52282
H          2.34532       -0.88336       -5.67987
H          2.27290        0.11774       -4.20445
H          5.29249       -1.08637       -6.09204
H          5.62795       -2.57197       -5.11063
H          4.20098       -2.52347       -6.11995
