95
speciation1265.ct
Na         1.04328        0.08336       -0.03432
Mg         3.67361        3.94903       -1.33653
C         -1.64900       -1.10842       -0.72736
C         -2.28679        1.07054       -0.29960
O         -1.27672        0.08336       -0.03432
C         -0.69311       -2.25865       -0.46449
C         -3.68571        0.85283        0.31256
H         -2.62193       -1.49487       -0.36382
H         -1.68726       -0.93894       -1.82782
H         -1.96033        2.03291        0.13109
H         -2.45192        1.15942       -1.39745
H         -3.68256        1.00072        1.41029
H         -4.36603        1.61629       -0.13160
H         -4.15199       -0.11995        0.06564
H         -0.64647       -2.48167        0.62165
H         -1.08051       -3.16152       -0.98989
H          0.31605       -2.03217       -0.85898
H          4.35789        6.51185       -1.01374
C          5.72255        6.22529       -2.62009
C          5.02161        5.71024       -1.38410
C          4.68948        6.57441       -3.66442
H          6.31042        7.12993       -2.35741
H          6.45789        5.49814       -3.00013
H          4.03690        5.70633       -3.83221
H          4.07051        7.41778       -3.28900
C          5.37082        6.94103       -4.96719
H          5.86545        5.60777       -0.68278
H          6.09228        7.76698       -4.79718
H          5.91271        6.05219       -5.35961
H          4.60507        7.25444       -5.70243
C          5.69734        2.56422       -2.74648
C          6.32698        1.46965       -3.28577
C          5.64134        0.39226       -2.80862
C          4.61851        0.89340       -1.98943
N          4.68487        2.25353       -1.91374
C          3.54353        0.01263       -1.49984
N          3.41328        0.08336       -0.03432
C          4.11637       -0.97754        0.75680
H          7.13179        1.45739       -3.99994
H          5.96758        3.55141       -3.00232
H          5.83509       -0.64893       -3.08155
H          3.68146       -1.01001       -1.85320
H          2.60434        0.37002       -1.94668
C          5.61818       -0.93961        0.51554
C          3.80688       -0.76539        2.22921
C          3.57519       -2.40936        0.39037
H          6.02524        0.06753        0.80930
H          6.14027       -1.70825        1.13075
H          5.88405       -1.12697       -0.53644
H          2.72502       -0.84037        2.44209
H          4.32707       -1.55666        2.84922
H          4.17980        0.21618        2.58049
H          2.47551       -2.45668        0.53876
H          3.79879       -2.71153       -0.65727
H          4.05166       -3.17127        1.02762
Na         3.30741        1.98169        0.62961
Mg        -1.70142        5.69497       -0.68176
H          2.03120        2.73802       -2.72559
C          2.42030        3.51012       -4.52572
C          2.26577        3.75119       -3.01886
C          1.05427        3.20980       -5.20122
H          2.84851        4.39691       -5.01121
H          3.10662        2.64976       -4.66676
H          0.53454        2.34802       -4.72494
H          0.41137        4.10895       -5.06525
C          1.16453        2.97280       -6.72016
H          1.46017        4.49814       -2.83743
H          2.03087        3.49140       -7.19355
H          0.33924        3.53276       -7.14980
H          0.71166        2.04173       -7.13544
C         -0.95505        3.18352       -1.87888
C         -0.09477        2.11670       -1.82566
C          0.79594        2.40439       -0.82466
C          0.47064        3.60387       -0.30545
N         -0.62332        4.09045       -0.93515
C          1.26924        4.22952        0.79628
N          2.73991        3.94790        0.66042
C          3.52602        4.38910        1.85350
H         -0.08089        1.22852       -2.44102
H         -1.78898        3.27131       -2.55023
H          1.64522        1.85899       -0.54368
H          0.89053        3.77341        1.73575
H          1.04326        5.31249        0.82124
C          3.07149        3.71530        3.18244
C          4.98823        3.95919        1.67474
C          3.41862        5.92074        2.02354
H          3.03087        2.60952        3.07402
H          3.79681        3.94482        3.99787
H          2.09003        4.08132        3.54093
H          5.39677        4.35630        0.76803
H          5.62145        4.31675        2.51372
H          5.09389        2.85870        1.60031
H          3.61190        6.43458        1.06552
H          2.39483        6.20831        2.34997
H          4.11991        6.30289        2.79192
