110
speciation2287.ct
Na         3.77854       -1.29045       -2.32913
Mg         8.56072        8.83159       -0.56555
C          5.87308       -3.65270       -2.26692
C          5.52511       -2.92890       -4.42840
O          4.91391       -3.13162       -3.16783
C          5.24995       -3.87239       -0.89631
C          4.52159       -2.36261       -5.42237
H          6.21638       -4.65110       -2.62389
H          6.74531       -2.96886       -2.15462
H          6.39254       -2.23336       -4.36083
H          5.85721       -3.91009       -4.83995
H          4.21256       -1.34075       -5.12041
H          4.99198       -2.31108       -6.42868
H          3.62718       -3.01789       -5.48368
H          4.35990       -4.53121       -0.97863
H          5.99319       -4.36206       -0.22985
H          4.95285       -2.90207       -0.44709
H         10.28578        9.59955       -2.43428
C         11.20550       10.73696       -0.84378
C          9.95871       10.17541       -1.54142
C         12.12181        9.63034       -0.31422
H         11.77348       11.36185       -1.57261
H         10.88735       11.38755       -0.00227
H         11.55763        9.01802        0.41996
H         12.45716        8.97702       -1.14975
C         13.35663       10.21761        0.37404
H          9.36032       11.03835       -1.90333
H         13.97514       10.79109       -0.35020
H         13.05562       10.89211        1.20401
H         13.97731        9.39807        0.79446
C          3.01944        4.40375        0.96917
C          2.19845        3.60006        1.73450
C          2.31525        2.32078        1.23168
C          3.20946        2.39622        0.18053
N          3.63620        3.66573        0.02421
C          3.67828        1.25709       -0.69028
N          2.61870        0.59040       -1.47235
C          1.96835        1.37683       -2.56592
H          1.57510        3.91809        2.56025
H          3.14911        5.47240        1.08781
H          1.79955        1.44456        1.59676
H          4.13210        0.50530       -0.01270
H          4.49291        1.59920       -1.35818
C          2.99065        1.84065       -3.61323
C          0.94329        0.45518       -3.24987
C          1.18817        2.61546       -2.05715
H          3.54416        0.97868       -4.03717
H          2.48211        2.38305       -4.44074
H          3.70699        2.54565       -3.15352
H          0.17128        0.12345       -2.52184
H          0.42303        0.98859       -4.07709
H          1.43926       -0.44244       -3.67337
H          0.46483        2.33710       -1.27133
H          1.84388        3.41217       -1.67209
H          0.62690        3.09157       -2.89120
Na         0.99786        0.03316       -0.09181
Mg         4.81295        4.30290       -1.40477
C         -1.81868        0.18273        1.14005
C         -0.32937       -1.02221        2.43322
O         -0.60088       -0.53532        1.12793
C         -2.13249        0.70543       -0.24877
C          0.98190       -1.79301        2.44564
H         -2.65246       -0.49842        1.41577
H         -1.77416        1.04589        1.84326
H         -0.26435       -0.19728        3.17892
H         -1.12319       -1.74777        2.72973
H          1.83260       -1.11375        2.23566
H          1.12804       -2.24981        3.44893
H          0.95483       -2.60246        1.68613
H         -2.12958       -0.12654       -0.98346
H         -3.13467        1.18735       -0.24551
H         -1.38660        1.46266       -0.54071
H          9.14238        9.48440        2.02648
C          7.71219        7.88918        2.32258
C          8.20110        9.12694        1.55721
C          8.70789        6.73673        2.18958
H          7.56562        8.14288        3.39758
H          6.73483        7.56230        1.91693
H          8.84048        6.50836        1.11120
H          9.69098        7.02726        2.62156
C          8.20299        5.47943        2.89727
H          7.44154        9.93157        1.66984
H          8.13443        5.64612        3.99365
H          7.20149        5.19226        2.51037
H          8.90552        4.64052        2.70802
C          5.48211        4.61478       -4.25801
C          6.33964        5.24356       -5.13211
C          7.19761        5.99953       -4.36395
C          6.81481        5.80584       -3.04771
N          5.77235        4.95289       -2.98509
C          7.42266        6.47659       -1.84955
N          7.37375        7.95161       -1.94919
C          6.04033        8.62067       -1.96487
H          6.32689        5.16356       -6.21142
H          4.67956        3.95705       -4.55118
H          7.99209        6.63573       -4.72836
H          6.94696        6.12605       -0.91152
H          8.48842        6.16962       -1.80577
C          5.19013        8.21588       -0.74646
C          6.29202       10.13465       -1.90656
C          5.23805        8.35086       -3.26151
H          5.72706        8.46333        0.18500
H          4.22370        8.76294       -0.74121
H          4.95299        7.13124       -0.75614
H          6.87760       10.46352       -2.79224
H          5.32875       10.69141       -1.90003
H          6.85541       10.40421       -0.98943
H          5.84673        8.59442       -4.15878
H          4.86938        7.31474       -3.33517
H          4.31845        8.97370       -3.28688
