110
speciation2274.ct
Na         6.62029        0.55858        0.01549
Mg         4.20073        2.94443       -8.23049
C          7.17532       -2.16191       -1.29402
C          7.01742       -2.35210        1.04252
O          7.24341       -1.47559       -0.04575
C          5.79830       -2.76277       -1.61483
C          7.35657       -1.67225        2.36041
H          7.43331       -1.43858       -2.09725
H          7.95935       -2.95370       -1.34312
H          5.95637       -2.67857        1.09445
H          7.68694       -3.24217        0.97002
H          6.71327       -0.78150        2.50560
H          7.17487       -2.38489        3.19574
H          8.42501       -1.37250        2.38096
H          5.01710       -1.97676       -1.58651
H          5.81616       -3.21660       -2.63142
H          5.53023       -3.57475       -0.90604
H          7.00860        3.17860       -9.31506
C          6.67626        1.33817      -10.34662
C          6.41139        2.25340       -9.14888
C          5.96311        0.00611      -10.13334
H          6.32465        1.83639      -11.27034
H          7.77686        1.14948      -10.45604
H          6.38529       -0.51573       -9.24354
H          4.89099        0.22022       -9.95272
C          6.07749       -0.90490      -11.34935
H          6.95883        1.71810       -8.34179
H          5.67105       -0.39084      -12.24602
H          7.13329       -1.19489      -11.53741
H          5.47971       -1.82228      -11.16578
C          6.87974        3.76530       -0.06987
C          6.16956        4.95259       -0.02768
C          4.84268        4.60274        0.03256
C          4.80665        3.22007        0.02512
N          6.05738        2.70478       -0.02057
C          3.56400        2.40545        0.06155
N          2.78345        2.75406       -1.12081
C          1.50781        2.06780       -1.33449
H          6.55436        5.96821       -0.03704
H          7.96588        3.71230       -0.09959
H          3.99888        5.27994        0.07916
H          3.84140        1.33016        0.05387
H          3.01618        2.64748        0.99759
C          0.56857        2.21348       -0.12121
C          0.84894        2.76796       -2.53914
C          1.76171        0.59008       -1.66211
H          0.41902        3.29014        0.11636
H         -0.42090        1.75668       -0.33263
H          0.98646        1.71314        0.77589
H          1.56094        2.82699       -3.38520
H         -0.07659        2.24641       -2.86017
H          0.57220        3.81502       -2.29576
H          2.52683        0.51722       -2.45853
H          2.15359        0.03502       -0.78800
H          0.82246        0.09735       -1.99445
Na         2.03101        5.00144       -1.11741
Mg         3.88341        2.42526       -2.74626
C          1.91346        8.02282       -2.08691
C          1.41069        7.81841        0.15425
O          1.29445        7.20141       -1.11409
C          1.82048        7.38213       -3.46439
C          0.76475        6.95306        1.22663
H          1.37055        8.99409       -2.15189
H          2.98685        8.20404       -1.85051
H          2.47574        7.99054        0.43157
H          0.85747        8.78593        0.15031
H          1.31639        5.99620        1.33555
H          0.79060        7.49320        2.19825
H         -0.29436        6.74296        0.96711
H          0.76209        7.16408       -3.71977
H          2.23059        8.08328       -4.22391
H          2.40884        6.44293       -3.49212
H          4.17128        5.38033       -9.55491
C          2.05574        5.41662       -9.04165
C          3.35863        4.64371       -9.37708
C          2.13299        6.33061       -7.80575
H          1.79507        6.06117       -9.91170
H          1.23242        4.68902       -8.91440
H          2.40443        5.74352       -6.91094
H          2.89967        7.11984       -7.96869
C          0.78305        7.00857       -7.52922
H          3.17007        4.11694      -10.33506
H          0.46612        7.63742       -8.38927
H         -0.00129        6.24505       -7.33598
H          0.85823        7.66004       -6.63149
C          1.40062        2.27588       -6.98051
C          0.73048        1.61930       -5.96558
C          1.69411        1.02834       -5.20005
C          2.92314        1.39907       -5.72634
N          2.74849        2.11907       -6.87312
C          4.24984        1.00850       -5.09208
N          4.98336        2.09646       -4.37171
C          5.45294        3.30349       -5.04483
H         -0.34186        1.56873       -5.79093
H          0.89214        2.84265       -7.74052
H          1.48910        0.42620       -4.33056
H          4.88196        0.47232       -5.82366
H          4.01978        0.25468       -4.30654
C          4.34380        4.34585       -5.31414
C          6.46243        3.94295       -4.09726
C          6.11639        2.89545       -6.33008
H          3.80716        4.61983       -4.38465
H          4.79270        5.26255       -5.75510
H          3.60588        4.03669       -6.05041
H          7.27886        3.22401       -3.87246
H          6.89288        4.86949       -4.52939
H          5.94956        4.19010       -3.14170
H          6.94523        2.18297       -6.13467
H          5.37082        2.33902       -6.91272
H          6.45697        3.76634       -6.92260
