110
speciation2181.ct
Na         1.22932        0.73602        0.33501
Mg         7.56856       -2.11380        0.46019
C         -1.30926        1.74330       -1.04815
C         -1.20951        2.36510        1.21208
O         -0.77907        1.43206        0.23853
C         -0.83933        3.08455       -1.63815
C         -0.73866        1.92762        2.58532
H         -1.00214        0.92911       -1.73680
H         -2.42292        1.71291       -1.03363
H         -0.78882        3.37503        1.02023
H         -2.32346        2.41065        1.24391
H          0.37038        1.89002        2.60642
H         -1.09024        2.66025        3.34330
H         -1.15194        0.92702        2.82932
H          0.26046        3.16549       -1.64396
H         -1.20053        3.17343       -2.68538
H         -1.24709        3.94775       -1.07577
H          5.37231       -3.99520        0.47258
C          6.80912       -5.57114        0.17785
C          6.37479       -4.12463        0.00546
C          6.86657       -5.99649        1.63010
H          6.05695       -6.22572       -0.33040
H          7.78534       -5.71818       -0.33139
H          7.60896       -5.37364        2.16857
H          5.86279       -5.86327        2.09220
C          7.25862       -7.46850        1.71340
H          6.17169       -4.15987       -1.07250
H          6.50881       -8.10158        1.18712
H          8.25240       -7.62343        1.24145
H          7.30515       -7.77920        2.77431
C          5.57413       -2.55053       -3.04269
C          6.30757       -2.03281       -2.01561
C          5.45321       -1.54178       -1.09989
C          4.21257       -1.71293       -1.61125
N          4.27291       -2.35684       -2.80087
C          3.00015       -1.22035       -0.91476
N          3.30145       -0.01011       -0.10155
C          3.69512        1.25039       -0.81688
H          7.31845       -2.04687       -1.86799
H          5.99454       -3.06595       -3.90200
H          5.70777       -1.08856       -0.17298
H          2.68248       -2.02567       -0.21549
H          2.18136       -1.06372       -1.63175
C          2.68850        1.58594       -1.92801
C          3.70789        2.33684        0.26220
C          5.08276        1.26955       -1.54111
H          1.65826        1.56590       -1.55672
H          2.90302        2.58817       -2.35805
H          2.75877        0.84683       -2.75378
H          4.44263        2.08231        1.05183
H          3.96996        3.33462       -0.15446
H          2.71678        2.41167        0.75773
H          5.93854        1.04159       -0.91403
H          5.12224        0.59125       -2.41337
H          5.27608        2.28126       -1.95795
Na         2.84856       -3.07565       -4.20073
Mg         4.59592       -0.52355        1.49043
C          9.67179       -1.84999       -1.78429
C         10.12459       -3.42879       -0.06380
O          9.39236       -2.27200       -0.43462
C          9.48603       -2.95170       -2.86019
C         11.64562       -3.19929       -0.07659
H          9.02625       -0.97965       -2.01848
H         10.67000       -1.37785       -1.87937
H          9.84084       -3.70578        0.96891
H          9.84621       -4.29591       -0.69704
H         11.92293       -2.41563        0.65898
H         12.16502       -4.14501        0.17723
H         12.01806       -2.89621       -1.07698
H          8.55679       -3.54006       -2.71069
H          9.44969       -2.49693       -3.87272
H         10.32847       -3.67047       -2.83661
H          2.45217        0.04100        3.20375
C          2.88738       -1.95068        3.95808
C          2.78872       -0.93769        2.79912
C          1.56479       -2.18333        4.71641
H          3.19481       -2.93467        3.54835
H          3.64634       -1.58816        4.68182
H          1.19426       -1.23077        5.15202
H          0.79590       -2.57921        4.01719
C          1.76192       -3.19927        5.84960
H          2.00660       -1.29353        2.09501
H          2.12167       -4.17124        5.44642
H          2.50390       -2.82214        6.58499
H          0.80241       -3.37726        6.37997
C         10.52183        0.89662        0.24905
C         10.70586        1.69999        1.34957
C          9.49817        1.73748        2.03532
C          8.62097        0.98354        1.37130
N          9.20767        0.42202        0.22527
C          7.17609        0.79427        1.73290
N          6.73399       -0.62449        1.85106
C          7.00087       -1.22278        3.18466
H         11.61973        2.21026        1.60562
H         11.27619        0.67063       -0.49616
H          9.30640        2.31239        2.93183
H          6.61709        1.27334        0.94050
H          6.89131        1.41634        2.59992
C          6.56508       -0.32672        4.38131
C          6.19349       -2.50692        3.21582
C          8.48782       -1.58277        3.34774
H          5.51387        0.01307        4.27450
H          6.66709       -0.87762        5.34036
H          7.22194        0.56324        4.49773
H          6.54383       -3.19454        2.43076
H          6.24987       -3.01490        4.20056
H          5.15885       -2.25560        2.97279
H          8.82934       -2.19235        2.48727
H          9.12405       -0.67833        3.41530
H          8.64283       -2.16973        4.27862
