96
speciation1712.ct
Na         0.93185       -0.00707        0.07284
Mg        -2.14081        1.43109       -1.36957
C         -3.40989        0.13890       -3.52011
C         -4.99836        1.70490       -2.78677
O         -3.65702        1.23798       -2.65880
C         -3.01803        0.61960       -4.90112
C         -5.48110        2.52768       -1.59501
H         -2.57015       -0.44229       -3.08358
H         -4.26222       -0.57949       -3.57689
H         -5.07363        2.36039       -3.68259
H         -5.71793        0.85471       -2.85671
H         -4.85428        3.43423       -1.45982
H         -6.52910        2.85766       -1.78529
H         -5.48547        1.92537       -0.66267
H         -2.13029        1.26370       -4.82659
H         -2.76811       -0.24504       -5.53809
H         -3.84783        1.19630       -5.35832
H         -1.59137       -6.46228        2.36609
C         -2.04913       -5.19274        4.06165
C         -1.47593       -5.39851        2.66516
C         -3.52702       -5.60153        4.09319
H         -1.47605       -5.81357        4.78371
H         -1.94508       -4.12187        4.33993
H         -4.10313       -4.99025        3.36418
H         -3.62220       -6.67362        3.81101
C         -4.12781       -5.41181        5.48310
H         -0.39958       -5.13132        2.63664
H         -3.57923       -6.02648        6.22840
H         -4.07932       -4.34344        5.78201
H         -5.19164       -5.73161        5.47553
C         -4.80747       -3.17603       -0.08923
C         -5.30154       -2.04373       -0.67789
C         -4.22123       -1.21035       -0.84458
C         -3.09685       -1.86637       -0.39541
N         -3.48510       -3.03654        0.09121
C         -1.66852       -1.40917       -0.28855
N         -1.43815       -0.00707        0.07284
C         -1.84652        0.43930        1.44543
H         -6.33899       -1.81769       -0.88579
H         -5.39256       -4.00792        0.27420
H         -4.29461       -0.21953       -1.16576
H         -1.21409       -1.55358       -1.29375
H         -1.10385       -2.08792        0.38403
C         -1.09936       -0.33775        2.54590
C         -1.46957        1.91617        1.56952
C         -3.36743        0.35629        1.71753
H         -0.00158       -0.25758        2.40616
H         -1.35158        0.08158        3.54670
H         -1.39302       -1.40672        2.55373
H         -2.04231        2.50219        0.82082
H         -1.72624        2.32644        2.57183
H         -0.37719        2.03902        1.41798
H         -3.94273        0.92521        0.95851
H         -3.72861       -0.68732        1.77130
H         -3.60406        0.80172        2.70961
Mg        -2.49298       -4.20287        1.36222
C         -1.75176        3.61551       -3.04647
C         -0.45599        3.89846       -1.09625
O         -1.65757        3.35086       -1.64803
C         -0.56018        3.10262       -3.87026
C         -0.41827        5.43608       -1.14329
H         -2.65620        3.12781       -3.42282
H         -1.96744        4.68315       -3.25161
H         -0.39080        3.66110       -0.02986
H          0.45394        3.45592       -1.54713
H         -1.26547        5.85753       -0.56160
H          0.53362        5.79795       -0.69977
H         -0.45807        5.83039       -2.17772
H         -0.35064        2.04160       -3.61325
H         -0.79132        3.18640       -4.95185
H          0.35057        3.70818       -3.69272
C          2.15133       -4.13242        1.08174
C          1.62818       -4.27143       -0.18143
C          2.09063       -3.20651       -0.94256
C          2.87531       -2.45199       -0.17242
N          2.94663       -2.97442        1.13843
C          3.64497       -1.25326       -0.65940
N          3.30185       -0.00707        0.07284
C          4.08479        1.18178       -0.37593
H          0.98604       -5.07617       -0.52225
H          1.99555       -4.81423        1.90808
H          1.88795       -3.04833       -1.99360
H          3.42050       -1.12848       -1.74034
H          4.70349       -1.50893       -0.52142
C          3.79649        1.54366       -1.85313
C          3.68756        2.37350        0.50115
C          5.61289        0.95786       -0.20172
H          2.71433        1.73253       -2.00718
H          4.35967        2.45928       -2.14035
H          4.12834        0.74881       -2.55103
H          3.92368        2.16937        1.56783
H          4.24414        3.28929        0.19593
H          2.60034        2.58146        0.41224
H          5.85194        0.68698        0.84616
H          6.00044        0.16310       -0.87562
H          6.17543        1.87847       -0.46722
