110
speciation2277.ct
Na         0.99360        0.26550        0.11332
Mg         1.63259        1.24418        3.48978
C          0.51012       -0.45757       -2.80805
C         -1.40248        0.60054       -1.86820
O         -0.23953       -0.19679       -1.63076
C          0.93541        0.78735       -3.61890
C         -2.47318       -0.08179       -2.73537
H          1.42982       -0.95631       -2.49252
H         -0.00932       -1.18687       -3.46424
H         -1.88650        0.78402       -0.90015
H         -1.14178        1.58842       -2.30688
H         -2.86082       -0.98923       -2.22704
H         -3.32249        0.62171       -2.88891
H         -2.09554       -0.35414       -3.74188
H          1.45561        1.51832       -2.96465
H          1.62305        0.48151       -4.43236
H          0.06549        1.28245       -4.10633
H          1.50206        3.90267        3.43931
C          3.14836        4.05129        4.80653
C          1.91967        3.28967        4.26636
C          4.25403        4.22758        3.76154
H          2.80591        5.06321        5.12110
H          3.55355        3.52727        5.69609
H          4.65484        3.22857        3.50115
H          3.83875        4.74452        2.86785
C          5.42535        5.06355        4.26189
H          1.16188        3.28211        5.07852
H          5.09433        6.09472        4.50761
H          5.88178        4.59121        5.15502
H          6.19346        5.12402        3.45899
C         -3.08278        3.35629       -0.27861
C         -3.86842        3.22774        0.84716
C         -3.02570        2.83087        1.86299
C         -1.76054        2.68545        1.30844
N         -1.80570        3.04887        0.01041
C         -0.48092        2.36800        2.05602
N          0.03385        0.96433        2.12347
C         -0.77707       -0.01751        2.91883
H         -4.93013        3.43002        0.91713
H         -3.42673        3.67585       -1.25419
H         -3.31579        2.67125        2.89283
H         -0.55164        2.81477        3.06296
H          0.28827        2.98098        1.55289
C         -2.14361       -0.36720        2.29134
C         -0.01204       -1.34663        2.98013
C         -0.97078        0.49199        4.36962
H         -2.02084       -0.75322        1.26089
H         -2.64783       -1.15116        2.90304
H         -2.84499        0.46421        2.28703
H          0.98800       -1.18442        3.37993
H         -0.53005       -2.07720        3.64305
H          0.09841       -1.80038        1.97438
H          0.01351        0.68319        4.85050
H         -1.56581        1.42628        4.40545
H         -1.51356       -0.25303        4.98877
Na         4.10818       -1.63332        1.64012
Mg        -0.27763        3.12224       -1.19506
C          5.82780       -3.93226        2.41169
C          3.86683       -4.00131        3.75229
O          4.88543       -3.18584        3.17894
C          5.22603       -4.87100        1.34768
C          4.39691       -4.91701        4.86683
H          6.45186       -3.19279        1.86813
H          6.52955       -4.48265        3.07249
H          3.10806       -3.34622        4.21952
H          3.30906       -4.57882        2.99060
H          4.78384       -4.31185        5.71398
H          3.57346       -5.56251        5.23918
H          5.20191       -5.58926        4.50658
H          4.53698       -4.31017        0.68185
H          6.03826       -5.31251        0.73450
H          4.68613       -5.72630        1.80684
H          2.71770       -1.16134        4.49761
C          3.71159        0.13052        5.82830
C          3.14496       -0.14753        4.44125
C          2.61306        0.11918        6.89172
H          4.45362       -0.66648        6.07080
H          4.23598        1.10779        5.81961
H          1.86683        0.90705        6.65613
H          2.10276       -0.87051        6.89926
C          3.19734        0.37783        8.27794
H          4.01071       -0.24123        3.75522
H          3.91959       -0.42188        8.55157
H          3.71767        1.35898        8.29780
H          2.38147        0.39009        9.03057
C          4.09571       -3.59344       -3.20458
C          3.15115       -3.99394       -2.28896
C          2.93438       -2.94163       -1.39695
C          3.72251       -1.92633       -1.77012
N          4.47248       -2.28570       -2.90953
C          3.92013       -0.54242       -1.21361
N          3.31418       -0.04734        0.06814
C          3.89995        1.31990        0.31608
H          2.68027       -4.96809       -2.29106
H          4.49432       -4.17440       -4.02821
H          2.24801       -2.93649       -0.56898
H          3.62276        0.09793       -2.06198
H          5.01804       -0.55297       -1.10997
C          3.60187        2.34002       -0.82950
C          3.25438        1.90113        1.54276
C          5.43816        1.27952        0.56228
H          2.50829        2.43694       -0.99404
H          4.00169        3.34431       -0.56745
H          4.09954        2.09778       -1.78809
H          3.52116        1.33588        2.43411
H          3.59439        2.93861        1.65202
H          2.17167        1.93121        1.41496
H          5.69133        0.51395        1.32677
H          6.02477        1.07312       -0.35683
H          5.81465        2.26544        0.90930
