83
speciation490.ct
Na         0.90623       -0.27520        0.39801
Mg         0.96753       -2.79666       -1.88225
C         -0.34362        2.09251        1.67317
C         -0.51665        0.33272        3.20851
O         -0.31608        0.68532        1.84309
C          0.89545        2.78492        2.24356
C         -0.68311       -1.16721        3.39746
H         -0.38542        2.29709        0.58517
H         -1.27547        2.53656        2.09274
H          0.32855        0.65680        3.85011
H         -1.46709        0.78421        3.57523
H          0.26018       -1.69363        3.19779
H         -0.93578       -1.37610        4.45902
H         -1.48990       -1.56197        2.74691
H          1.80197        2.33248        1.80619
H          0.87052        3.86543        1.99322
H          0.94200        2.70151        3.34836
C         -0.75752       -5.31121       -1.60240
C         -2.06956       -5.50889       -1.21471
C         -2.58439       -4.26687       -0.90105
C         -1.55512       -3.36871       -1.11235
N         -0.46364       -3.99853       -1.54304
C         -1.58663       -1.88322       -0.92744
N         -0.26620       -1.28875       -1.27432
C         -0.28111       -0.42186       -2.47212
H         -2.59542       -6.45506       -1.16772
H         -0.06577       -6.07900       -1.92138
H         -3.59182       -4.04930       -0.56403
H         -1.83009       -1.64906        0.12717
H         -2.41233       -1.51652       -1.56512
C         -1.28447        0.75222       -2.39667
C          1.10614        0.18131       -2.53562
C         -0.54776       -1.26443       -3.74668
H         -1.11379        1.34830       -1.47902
H         -1.14640        1.41645       -3.27780
H         -2.34191        0.42698       -2.41916
H          1.80193       -0.65160       -2.44195
H          1.26531        0.75554       -3.47202
H          1.29852        0.84120       -1.66556
H          0.16645       -2.11125       -3.82160
H         -1.57756       -1.68330       -3.75234
H         -0.43809       -0.64384       -4.66244
Na         6.21265        2.18215        2.77564
C          3.76103       -2.27732       -2.70603
C          2.78042       -4.34379       -3.38072
O          2.73637       -3.24547       -2.48074
C          3.72723       -1.53521       -4.06393
C          4.03114       -5.22370       -3.21445
H          3.73449       -1.54991       -1.87489
H          4.75168       -2.75014       -2.56832
H          1.90843       -4.99250       -3.16195
H          2.65695       -4.02794       -4.43313
H          4.09055       -5.62502       -2.18108
H          3.98355       -6.07178       -3.92851
H          4.96657       -4.67609       -3.44744
H          3.61305       -2.20389       -4.93259
H          4.68366       -0.99018       -4.19186
H          2.93718       -0.77518       -4.15689
C          7.58673        0.82019        0.34234
C          7.36669        0.20498       -0.87246
C          5.99836        0.23858       -1.08860
C          5.43983        0.84899        0.01977
N          6.41731        1.21790        0.88235
C          3.96481        1.03448        0.28209
N          3.21674       -0.23501        0.38832
C          3.60257       -1.17194        1.47454
H          8.11402       -0.21884       -1.52391
H          8.54773        0.94981        0.81749
H          5.48891       -0.16394       -1.94162
H          3.55089        1.64261       -0.55533
H          3.83748        1.64738        1.20041
C          3.58511       -0.47714        2.85579
C          2.57625       -2.31142        1.46904
C          4.97248       -1.85263        1.23762
H          2.58644       -0.03890        3.06447
H          3.83148       -1.19858        3.66318
H          4.34313        0.33148        2.91511
H          2.59607       -2.84872        0.49648
H          2.77755       -3.03332        2.28949
H          1.56246       -1.91936        1.59610
H          5.00367       -2.32236        0.23279
H          5.83291       -1.17994        1.35551
H          5.14315       -2.64530        1.99727
