81
speciation418.ct
Na         4.78308       -3.74265       -2.42587
Mg         3.00186        4.09858       -4.76870
C          5.95151       -5.47450       -4.68269
C          3.61009       -5.10763       -4.95434
O          4.67671       -5.38693       -4.05910
C          6.35668       -4.26592       -5.53644
C          3.30289       -6.26825       -5.90184
H          6.69641       -5.55854       -3.86349
H          6.04246       -6.41849       -5.26039
H          2.69455       -4.94940       -4.34892
H          3.77206       -4.16735       -5.51670
H          3.03508       -7.17541       -5.32097
H          2.44365       -5.99176       -6.54969
H          4.16506       -6.49146       -6.56199
H          6.26989       -3.33037       -4.94562
H          7.41013       -4.38912       -5.86523
H          5.74039       -4.19312       -6.45613
H          3.32072        3.47183       -7.29590
C          4.79776        4.96408       -6.79137
C          3.37718        4.43202       -6.74678
C          5.73882        3.93988       -6.14916
H          5.09352        5.15292       -7.84518
H          4.83376        5.91829       -6.22283
H          5.41612        3.73767       -5.10350
H          5.70022        2.98697       -6.72207
C          7.17508        4.44594       -6.12943
H          2.65802        5.15330       -7.18943
H          7.52751        4.64363       -7.16383
H          7.24261        5.37952       -5.53161
H          7.83061        3.67771       -5.66776
C          2.94114       -0.26542       -4.49783
C          2.70135       -1.61693       -4.53924
C          2.98279       -2.09793       -3.26781
C          3.41407       -1.02896       -2.52383
N          3.35118        0.10166       -3.25790
C          3.80200       -1.05967       -1.06622
N          4.89174       -2.06294       -0.75744
C          5.12227       -2.29263        0.66948
H          2.31086       -2.17764       -5.37086
H          2.77467        0.42767       -5.30473
H          2.84436       -3.11629       -2.94835
H          2.87795       -1.31264       -0.51937
H          4.12059       -0.05396       -0.76746
C          3.82005       -2.91508        1.23563
C          6.30117       -3.27361        0.81500
C          5.54704       -0.97457        1.38315
H          3.23268       -3.28836        0.37795
H          3.91828       -3.91174        1.71104
H          3.13641       -2.15303        1.67620
H          7.24552       -2.81292        0.44172
H          6.45426       -3.53869        1.88224
H          6.11670       -4.19969        0.23238
H          6.44652       -0.53896        0.88140
H          4.75786       -0.19791        1.35622
H          5.80948       -1.14460        2.44667
Mg         3.54619        1.95416       -2.68314
C          5.84798        2.79621       -0.85513
C          6.08879        3.95939       -0.14464
C          5.06079        4.83310       -0.45192
C          4.25025        4.16423       -1.34571
N          4.71227        2.93014       -1.56165
C          2.99986        4.66365       -1.99754
N          2.49514        3.64668       -2.95054
C          1.01908        3.55582       -3.06726
H          6.91323        4.14370        0.53115
H          6.45094        1.89795       -0.83393
H          4.91810        5.83437       -0.06630
H          3.20649        5.60432       -2.55018
H          2.28558        4.88410       -1.18253
C          0.39596        4.92358       -3.43305
C          0.69774        2.57661       -4.20709
C          0.38919        3.00565       -1.77071
H          0.82566        5.30780       -4.38402
H         -0.70370        4.82517       -3.56791
H          0.56650        5.68129       -2.64090
H          1.10030        1.57499       -3.97221
H         -0.40018        2.47651       -4.34850
H          1.14021        2.92375       -5.16599
H          0.83425        2.02041       -1.51774
H          0.52610        3.68549       -0.90860
H         -0.70720        2.87453       -1.90437
