81
speciation746.ct
Na         2.81248        0.19918       -1.78776
Mg         3.95386       -1.80799        0.95320
C          2.65030       -3.66978        2.66790
C          2.16931       -4.20193        0.37746
O          2.71359       -3.26833        1.30882
C          3.35159       -4.98592        2.96337
C          0.66853       -4.50608        0.60842
H          3.16408       -2.88897        3.26422
H          1.59853       -3.66416        3.03680
H          2.26052       -3.76350       -0.63911
H          2.76010       -5.13831        0.35415
H          0.03381       -3.59850        0.57577
H          0.29933       -5.19298       -0.18043
H          0.49461       -4.99690        1.58643
H          4.39011       -4.94737        2.59674
H          3.36191       -5.15896        4.05931
H          2.83025       -5.83757        2.48362
H          5.22583        6.32135        0.93408
C          4.35752        6.96287        2.82997
C          4.35918        6.08268        1.58565
C          3.14907        6.63431        3.71647
H          5.29665        6.78783        3.39733
H          4.31500        8.02909        2.51874
H          2.20932        6.79506        3.14363
H          3.19533        5.56866        4.03160
C          3.11597        7.51915        4.95955
H          3.42192        6.24513        1.01154
H          4.03284        7.36838        5.56749
H          3.04071        8.58895        4.66922
H          2.23123        7.25860        5.57915
C          4.90437        1.86943        3.98561
C          4.90733        0.49900        4.10943
C          4.53156        0.00340        2.89145
C          4.29923        1.09212        2.06770
N          4.53016        2.22572        2.74131
C          3.85811        1.08154        0.65064
N          2.96541       -0.04051        0.33473
C          1.54803        0.09667        0.80481
H          5.15317       -0.07985        4.98887
H          5.15975        2.57058        4.76715
H          4.41764       -1.03089        2.65601
H          4.76080        0.98141        0.03001
H          3.44517        2.06578        0.34357
C          0.90569        1.47521        0.51842
C          0.72362       -0.91820        0.01481
C          1.41477       -0.18237        2.31519
H          0.95081        1.71808       -0.56388
H         -0.16725        1.45896        0.81919
H          1.38144        2.28824        1.10311
H          1.20603       -1.88406        0.09089
H         -0.32077       -0.99288        0.38662
H          0.70350       -0.66781       -1.06505
H          1.83704       -1.16219        2.57836
H          1.91778        0.59817        2.91974
H          0.34933       -0.17502        2.62980
Mg         4.44573        4.13027        2.17065
C          9.92250       -3.37579        3.31776
C          9.64326       -2.07680        3.67285
C          8.32608       -1.82250        3.31238
C          7.83130       -2.93002        2.74442
N          8.78752       -3.96024        2.72462
C          6.42282       -3.08041        2.20072
N          6.06847       -2.12337        1.12253
C          6.79606       -2.25676       -0.16676
H         10.33398       -1.39632        4.14519
H         10.86598       -3.88425        3.45989
H          7.79964       -0.88230        3.45262
H          5.73104       -2.92042        3.05264
H          6.28642       -4.11488        1.85415
C          6.67795       -3.68511       -0.74603
C          6.15975       -1.27066       -1.15012
C          8.29409       -1.87027       -0.05245
H          5.62044       -3.99358       -0.80298
H          7.13005       -3.73066       -1.75998
H          7.23700       -4.41496       -0.11855
H          6.30788       -0.24068       -0.77374
H          6.64568       -1.33130       -2.14640
H          5.07530       -1.47832       -1.26124
H          8.40835       -0.86464        0.40761
H          8.88548       -2.59990        0.52891
H          8.77437       -1.85236       -1.05313
