81
speciation615.ct
Na        -0.62612       -1.72741       -3.90812
Mg         3.96292        2.70346       -1.87244
C          3.48867        2.89940        1.19458
C          1.60482        3.54931       -0.09763
O          2.99200        3.21542       -0.11155
C          2.73289        1.80649        1.97265
C          1.22319        4.73869        0.82079
H          4.52410        2.58718        1.09330
H          3.55700        3.81133        1.82400
H          1.31147        3.83752       -1.12072
H          0.99672        2.66939        0.17317
H          1.72010        5.66225        0.50121
H          0.13297        4.92248        0.76748
H          1.46224        4.55938        1.89304
H          2.69616        0.86680        1.39027
H          3.25560        1.61718        2.93714
H          1.70623        2.13207        2.23731
H          6.76320        2.19139       -2.19108
C          6.73165        1.38832       -0.18359
C          6.19150        2.38475       -1.25899
C          6.53124       -0.08306       -0.55452
H          7.82264        1.55853       -0.03098
H          6.27080        1.57355        0.79971
H          5.46180       -0.27288       -0.77457
H          7.14054       -0.30756       -1.45581
C          6.96023       -1.02200        0.58430
H          6.49509        3.38892       -0.89620
H          8.01814       -0.85071        0.87890
H          6.31311       -0.87227        1.47684
H          6.85508       -2.07852        0.25747
C          4.16462        0.20498       -3.62509
C          3.59452       -0.90902       -4.21580
C          2.32694       -1.00767       -3.71185
C          2.16206        0.07043       -2.84762
N          3.29214        0.83383       -2.78052
C          0.87699        0.37100       -2.13222
N         -0.07025       -0.77952       -2.05917
C         -1.38811       -0.44496       -1.44935
H          4.04563       -1.56844       -4.94854
H          5.15673        0.56099       -3.83946
H          1.60695       -1.77283       -3.99021
H          0.44132        1.22859       -2.67336
H          1.17585        0.65329       -1.11282
C         -2.13679        0.55756       -2.35411
C         -2.25122       -1.72344       -1.34244
C         -1.22587        0.11035       -0.02101
H         -2.16211        0.17582       -3.39791
H         -3.17987        0.70995       -2.00894
H         -1.65023        1.55136       -2.35394
H         -1.76810       -2.48600       -0.69358
H         -3.23731       -1.47730       -0.88206
H         -2.45581       -2.17772       -2.33366
H         -0.70487       -0.63475        0.62174
H         -0.65329        1.05405       -0.00580
H         -2.21699        0.33244        0.42841
Mg         1.73702        4.50809       -3.05731
C          4.59332        6.06408        0.76885
C          3.78627        7.14192        0.47174
C          3.51679        7.08478       -0.87857
C          4.14265        6.02051       -1.38752
N          4.85530        5.32891       -0.39394
C          4.22491        5.70883       -2.85299
N          3.66721        4.40495       -3.29995
C          3.74515        4.34725       -4.82051
H          3.42278        7.87755        1.17635
H          4.99403        5.84036        1.75231
H          2.93600        7.80942       -1.43799
H          5.30300        5.77934       -3.09300
H          3.70328        6.54427       -3.35123
C          5.18042        4.55506       -5.38004
C          3.24400        2.99203       -5.31767
C          2.81943        5.40988       -5.50347
H          5.90024        3.86278       -4.89973
H          5.20124        4.37991       -6.47975
H          5.52859        5.60198       -5.24898
H          2.21036        2.78964       -4.96644
H          3.24235        2.95467       -6.43261
H          3.93267        2.21370       -4.98719
H          1.76580        5.30025       -5.17088
H          3.13380        6.45869       -5.34002
H          2.83709        5.29588       -6.61109
