95
speciation1413.ct
Na         1.68802       -1.61470        0.12623
Mg         4.64940        0.40306        1.66119
C          0.48325       -4.46512        0.12675
C         -1.16938       -2.96339       -0.61333
O         -0.04470       -3.15403        0.22882
C          1.08332       -4.79894       -1.24492
C         -1.69788       -1.54192       -0.48451
H          1.30068       -4.53740        0.87493
H         -0.27305       -5.22346        0.42771
H         -0.93353       -3.12299       -1.68617
H         -1.98770       -3.64320       -0.29043
H         -0.98349       -0.82970       -0.92404
H         -2.64658       -1.44040       -1.05236
H         -1.87582       -1.28050        0.57893
H          1.82459       -4.02765       -1.54123
H          1.59065       -5.78515       -1.19184
H          0.29887       -4.88277       -2.02446
H          3.26701        0.35128        4.06425
C          1.68239       -0.25730        2.76999
C          2.95839        0.56005        3.03068
C          1.86643       -1.77207        2.84563
H          0.90100        0.05876        3.49553
H          1.28242       -0.07897        1.76659
H          0.88282       -2.23175        2.61955
H          2.59849       -2.10620        2.08779
C          2.31793       -2.23028        4.21894
H          2.69166        1.63575        3.04325
H          3.33521       -1.84877        4.43895
H          1.60216       -1.87218        4.98876
H          2.35070       -3.33909        4.22819
C          6.42929       -3.57554       -0.48193
C          6.15240       -3.27767        0.81659
C          5.26565       -2.22944        0.83375
C          5.05473       -1.91035       -0.48771
N          5.76601       -2.74251       -1.28956
C          4.22191       -0.79199       -1.01368
N          3.45809       -0.04219        0.02143
C          2.75180        1.17428       -0.59963
H          6.58736       -3.78501        1.62869
H          7.09640       -4.35506       -0.81954
H          4.85444       -1.74445        1.70763
H          3.51776       -1.23433       -1.74667
H          4.95379       -0.15039       -1.53272
C          1.59825        0.71481       -1.51549
C          2.09129        2.14573        0.43010
C          3.70656        2.09260       -1.40099
H          0.88770        0.13874       -0.90874
H          1.03391        1.57804       -1.93256
H          1.93048        0.09570       -2.36925
H          2.83624        2.58831        1.11722
H          1.63074        3.00993       -0.10154
H          1.21915        1.75899        0.97552
H          4.51264        2.47004       -0.73997
H          4.13231        1.60833       -2.29794
H          3.14922        2.97228       -1.79791
Na         6.12239       -3.05597       -3.36953
Mg         7.19724       -1.10630        2.91667
H          8.46833       -3.49945        2.91530
C          7.11001       -3.94179        4.59373
C          7.93492       -2.95967        3.72578
C          6.02070       -4.71949        3.83946
H          7.81642       -4.68698        5.02077
H          6.65113       -3.37164        5.42712
H          5.30392       -4.01324        3.37033
H          6.50840       -5.36461        3.07393
C          5.20913       -5.63479        4.74509
H          8.70544       -2.52098        4.39183
H          5.86989       -6.34467        5.28473
H          4.62783       -5.03081        5.47232
H          4.49620       -6.21840        4.12113
C         10.90421        1.84287        0.59198
C         10.91918        0.48651        0.80206
C          9.60690        0.06811        0.91728
C          8.81879        1.13494        0.77979
N          9.57400        2.30045        0.55394
C          7.29410        1.13364        0.85958
N          6.69768        0.68202        2.14939
C          7.02315        1.51612        3.36004
H         11.81562       -0.12276        0.87272
H         11.77449        2.47384        0.47415
H          9.27577       -0.94179        1.08399
H          6.92950        0.47451        0.05096
H          6.92586        2.15386        0.61695
C          6.53667        2.97507        3.22062
C          6.32341        0.87784        4.56754
C          8.53076        1.51486        3.71387
H          5.44336        3.01120        3.03647
H          6.75237        3.53969        4.15649
H          7.06280        3.50543        2.40068
H          6.64246       -0.17671        4.70591
H          6.55843        1.43030        5.50410
H          5.23923        0.90662        4.43699
H          8.92503        0.47740        3.77355
H          9.13257        2.10762        3.01896
H          8.70687        2.00482        4.69717
