80
speciation930.ct
Na         1.00710       -0.09239       -0.03760
Mg        -2.54926       -4.13307       -2.54881
H         -1.90509       -5.32909       -4.82401
C         -3.65047       -6.53590       -4.46312
C         -2.42563       -5.76658       -3.94516
C         -4.61693       -5.63261       -5.23879
H         -3.29632       -7.34231       -5.14456
H         -4.18333       -7.01254       -3.61863
H         -4.98532       -4.82479       -4.57219
H         -4.09141       -5.17374       -6.10554
C         -5.81310       -6.42950       -5.76617
H         -1.72928       -6.48842       -3.46836
H         -5.47654       -7.22215       -6.46937
H         -6.36519       -6.90302       -4.92657
H         -6.50752       -5.75324       -6.30852
C         -0.37710       -2.52120       -3.81532
C          0.36324       -1.36241       -3.69846
C         -0.05573       -0.74223       -2.54440
C         -1.03034       -1.55793       -1.99397
N         -1.23184       -2.64203       -2.77901
C         -1.77635       -1.32831       -0.71076
N         -1.36290       -0.09239       -0.03760
C         -1.94421        0.14341        1.30919
H          1.12320       -1.00411       -4.38104
H         -0.29340       -3.23780       -4.62105
H          0.31676        0.19744       -2.16047
H         -1.55023       -2.20024       -0.06999
H         -2.84957       -1.26099       -0.96627
C         -1.44690       -0.90458        2.32778
C         -1.48089        1.53401        1.77709
C         -3.48907        0.13727        1.28031
H         -0.33910       -0.90787        2.37175
H         -1.83570       -0.67131        3.34283
H         -1.79920       -1.92534        2.07825
H         -1.83739        2.31842        1.07538
H         -1.88497        1.76665        2.78682
H         -0.37219        1.58381        1.82255
H         -3.87421        0.90372        0.57453
H         -3.89240       -0.85463        0.98976
H         -3.89446        0.36539        2.29084
Na        -2.00688        1.48933       -1.32307
Mg         3.97106       -1.71290       -0.78685
H         -2.56801       -4.42045        0.08487
C         -4.61011       -5.02610       -0.21002
C         -3.41004       -4.17607       -0.59405
C         -4.30464       -6.51136       -0.35863
H         -4.86543       -4.80890        0.85240
H         -5.47775       -4.74169       -0.84621
H         -4.07024       -6.71760       -1.42028
H         -3.42398       -6.78515        0.25926
C         -5.49885       -7.34899        0.07359
H         -3.72320       -3.13677       -0.39567
H         -5.70036       -7.19359        1.15549
H         -6.40226       -7.06687       -0.50855
H         -5.27865       -8.42274       -0.09922
C          5.64997       -1.33960       -3.29102
C          5.98529       -0.13922       -3.89307
C          5.40882        0.86549       -3.13626
C          4.74803        0.23405       -2.10468
N          4.89711       -1.09682       -2.20609
C          3.95466        0.90262       -0.98549
N          3.37710       -0.09239       -0.03760
C          3.84588       -0.04219        1.36223
H          6.58421       -0.01044       -4.78408
H          5.93850       -2.32664       -3.62566
H          5.46839        1.93122       -3.31393
H          3.12253        1.48157       -1.43547
H          4.62627        1.62354       -0.48025
C          3.48012        1.30346        2.02616
C          3.12380       -1.16581        2.12546
C          5.36528       -0.29895        1.44713
H          2.38453        1.47903        1.96605
H          3.77639        1.29960        3.09756
H          3.99475        2.16081        1.54903
H          3.34576       -2.15475        1.66997
H          3.43945       -1.18981        3.19131
H          2.02541       -1.01127        2.09360
H          5.61604       -1.27757        0.98367
H          5.94971        0.48889        0.93152
H          5.69569       -0.32097        2.50833
