68
speciation114.ct
Na         2.18782        5.53819       -4.98581
Mg         5.88237        2.85583       -0.62020
C          6.71575        0.91310        1.35711
C          6.93895        0.20480       -0.84701
O          6.89822        1.31688        0.01930
C          6.54934        2.13920        2.23603
C          6.98794        0.72436       -2.26553
H          5.82309        0.25919        1.48138
H          7.62828        0.37596        1.71459
H          7.87518       -0.37761       -0.66821
H          6.05512       -0.46319       -0.73215
H          7.88470        1.34591       -2.36114
H          7.06939       -0.08094       -3.02150
H          6.08425        1.33684       -2.45899
H          5.66184        2.71675        1.90187
H          6.41144        1.83670        3.29384
H          7.45183        2.78445        2.16382
C          2.98032        2.29033       -1.15478
C          1.85966        2.69023       -1.85785
C          2.24861        3.74749       -2.63103
C          3.58922        3.96519       -2.37863
N          4.04660        3.06027       -1.47014
C          4.43001        5.03758       -3.04614
N          3.60076        6.16687       -3.50633
C          4.28077        7.31139       -4.15360
H          0.86175        2.26409       -1.80931
H          2.99918        1.47484       -0.44228
H          1.59400        4.29848       -3.29597
H          4.96751        4.56949       -3.89489
H          5.15165        5.40834       -2.30928
C          4.98190        6.88259       -5.46040
C          3.18010        8.33337       -4.48977
C          5.30801        8.01106       -3.23351
H          4.27338        6.36057       -6.13495
H          5.38246        7.77278       -5.99486
H          5.84027        6.21052       -5.25347
H          2.66517        8.65120       -3.55618
H          3.59809        9.23472       -4.98530
H          2.42193        7.88224       -5.16257
H          4.83335        8.36813       -2.29614
H          6.15698        7.34786       -2.97843
H          5.73987        8.89727       -3.75510
Na        10.52388        1.76414       -1.87223
C          6.11701        5.77055       -0.00220
C          7.02414        6.79591        0.17506
C          8.27449        6.23579        0.07301
C          8.07427        4.89655       -0.19118
N          6.75682        4.60543       -0.23219
C          9.16976        3.91844       -0.45639
N          9.04833        3.30817       -1.78798
C          9.19456        4.13729       -3.01049
H          6.80161        7.84064        0.34101
H          5.04071        5.88144        0.00520
H          9.22554        6.74806        0.14011
H         10.16926        4.38241       -0.33264
H          9.09577        3.11142        0.30372
C         10.54644        4.86957       -3.03263
C          9.11425        3.18734       -4.21912
C          8.04746        5.14382       -3.17852
H         11.37913        4.13901       -2.95184
H         10.66087        5.44246       -3.97564
H         10.62066        5.59086       -2.19178
H          8.12873        2.67190       -4.24440
H          9.21643        3.75205       -5.17098
H          9.91170        2.41730       -4.17906
H          7.09284        4.59716       -3.09306
H          8.07990        5.96458       -2.44884
H          8.08721        5.63912       -4.17079
