83
speciation588.ct
Na         1.64507       -0.86389        0.73373
Mg         2.15901        1.56303       -1.53146
C         -1.01554       -1.87812        2.27073
C         -1.09947       -0.44069        0.40945
O         -0.27733       -1.10026        1.34037
C         -0.11905       -2.85150        3.02420
C         -1.60066        0.85696        1.01457
H         -1.46125       -1.19791        3.02558
H         -1.81122       -2.48659        1.77824
H         -0.47070       -0.19568       -0.47449
H         -1.91962       -1.08276        0.01134
H         -0.72914        1.44588        1.37370
H         -2.15763        1.43971        0.25608
H         -2.27070        0.63911        1.87099
H          0.71633       -2.30796        3.50885
H         -0.71973       -3.36196        3.80924
H          0.28903       -3.63008        2.35155
C          0.98191       -3.46171       -0.69961
C          1.22968       -4.18985       -1.84232
C          2.06438       -3.41878       -2.62013
C          2.26314       -2.23564       -1.94170
N          1.62930       -2.28315       -0.75724
C          3.08017       -1.07121       -2.44527
N          2.26662        0.12828       -2.72240
C          1.41125        0.16945       -3.93434
H          0.84633       -5.17177       -2.07240
H          0.37085       -3.78455        0.12699
H          2.45060       -3.67798       -3.59703
H          3.65282       -1.37007       -3.33734
H          3.85231       -0.81518       -1.70972
C          0.26739       -0.86219       -3.88261
C          0.75740        1.55869       -4.00634
C          2.26106       -0.03791       -5.20462
H         -0.32686       -0.74766       -2.94954
H         -0.41345       -0.73384       -4.74972
H          0.63672       -1.89435       -3.95688
H          1.52774        2.35077       -4.06994
H          0.10868        1.64065       -4.90690
H          0.12552        1.74131       -3.10888
H          3.06062        0.73117       -5.25841
H          2.73236       -1.04098       -5.22340
H          1.63085        0.03007       -6.11413
Na         3.67018        1.95451       -2.78122
C          6.30169        1.59948       -4.18593
C          5.49474        3.83782       -4.34872
O          5.16590        2.45648       -4.24464
C          7.34089        1.95695       -3.11428
C          6.13466        4.21808       -5.69483
H          5.92272        0.58378       -3.95778
H          6.78344        1.51635       -5.18647
H          4.55625        4.42016       -4.28627
H          6.12775        4.18513       -3.51034
H          5.44750        3.98096       -6.53232
H          6.34074        5.30975       -5.70531
H          7.10103        3.69713       -5.85021
H          6.84617        2.06334       -2.12714
H          8.10492        1.15380       -3.05572
H          7.88207        2.89275       -3.36826
C          4.51437       -1.07922        0.71539
C          5.81354       -0.63669        0.60424
C          5.74442        0.72825        0.50268
C          4.40411        1.07315        0.52971
N          3.64050       -0.05418        0.65733
C          3.91928        2.49592        0.48129
N          3.21950        2.87589       -0.75393
C          2.84582        4.31371       -0.89569
H          6.70432       -1.24467        0.60611
H          4.21267       -2.11372        0.81197
H          6.58207        1.40466        0.39134
H          3.27558        2.65925        1.36830
H          4.81944        3.13118        0.58666
C          4.10660        5.20657       -0.96241
C          2.06340        4.50254       -2.20836
C          1.94362        4.78540        0.26203
H          4.76912        4.87787       -1.78544
H          3.83155        6.26839       -1.13958
H          4.68788        5.18701       -0.01832
H          1.12645        3.90963       -2.19362
H          1.79216        5.57139       -2.35476
H          2.66820        4.18665       -3.07763
H          1.02002        4.16814        0.30982
H          2.46622        4.72948        1.23835
H          1.64790        5.84764        0.11468
