80
speciation962.ct
Na         0.69516        1.11651       -0.38510
Mg         3.35126        0.19839       -1.39213
H          3.54037        2.98059       -1.95967
C          1.50716        3.21981       -2.54932
C          2.82042        2.33615       -2.52076
C          0.26133        2.87615       -3.43175
H          1.17789        3.37614       -1.50525
H          1.79779        4.23506       -2.92730
H         -0.55490        3.58675       -3.14383
H          0.48511        3.09427       -4.49707
C         -0.31785        1.45863       -3.37462
H          3.22737        2.32115       -3.55731
H         -0.73485        1.19124       -2.38317
H          0.44512        0.71568       -3.67454
H         -1.15303        1.39387       -4.11398
C         -1.61239       -1.05596       -0.14511
C         -1.57650       -2.37650        0.25971
C         -0.26452       -2.65838        0.57856
C          0.44019       -1.49235        0.35069
N         -0.38395       -0.52427       -0.07646
C          1.93157       -1.29190        0.53174
N          2.36268        0.12200        0.32598
C          2.83557        0.81463        1.55697
H         -2.40709       -3.05948        0.32525
H         -2.48595       -0.51460       -0.47328
H          0.14378       -3.59863        0.93454
H          2.42929       -1.94356       -0.20903
H          2.20181       -1.67793        1.53199
C          4.13613        0.18328        2.11373
C          3.13247        2.27891        1.20264
C          1.73745        0.80645        2.65146
H          4.94495        0.22553        1.35415
H          4.48128        0.73068        3.01808
H          4.00438       -0.87219        2.42152
H          2.24144        2.75489        0.74344
H          3.40213        2.85555        2.11593
H          3.98027        2.34536        0.48907
H          0.80478        1.27133        2.26820
H          1.49361       -0.21587        3.00448
H          2.07140        1.37817        3.54479
Na         5.48146       -0.97383       -6.28323
Mg         8.11302       -1.75220       -4.88244
H         10.33438       -2.38526       -4.93698
C         10.90928       -0.55792       -3.97720
C         10.11495       -1.30601       -5.05028
C         10.88540        0.97589       -4.06355
H         10.53596       -0.87893       -2.97769
H         11.97369       -0.87697       -4.05652
H          9.85473        1.36913       -3.93849
H         11.50903        1.36116       -3.22627
C         11.49018        1.51351       -5.36571
H         10.45127       -1.00417       -6.07103
H         12.50864        1.09782       -5.52756
H         10.84920        1.26142       -6.23488
H         11.57316        2.61991       -5.30956
C          5.08007       -2.24148       -0.28078
C          6.09984       -3.11575       -0.60106
C          6.49674       -2.79105       -1.85926
C          5.63836       -1.81174       -2.29546
N          4.82185       -1.38048       -1.30896
C          5.55000       -1.33208       -3.68933
N          6.22221       -2.19773       -4.67507
C          5.71567       -3.60185       -5.00776
H          6.51224       -3.92639       -0.00758
H          4.55832       -2.28052        0.66334
H          7.27228       -3.27075       -2.42565
H          4.47779       -1.24796       -3.93948
H          5.96188       -0.30139       -3.73551
C          4.24511       -3.50211       -5.45504
C          6.63052       -4.21563       -6.10502
C          5.75257       -4.70005       -3.89213
H          4.12363       -2.77924       -6.28335
H          3.83306       -4.48330       -5.76735
H          3.62605       -3.16108       -4.59597
H          7.66439       -4.33278       -5.69885
H          6.29877       -5.24602       -6.37674
H          6.69895       -3.62305       -7.03450
H          6.78429       -4.96093       -3.57194
H          5.09365       -4.49266       -3.02826
H          5.36264       -5.66199       -4.30077
