96
speciation1715.ct
Na         7.95029        1.07269        2.14087
Mg         4.32716        4.49163        0.78045
C          6.84494        5.51923       -0.00069
C          7.03401        3.20008       -0.18799
O          6.38645        4.27245        0.53668
C          6.67636        5.64834       -1.52492
C          8.54833        3.08028        0.06554
H          6.26590        6.33566        0.46957
H          7.89330        5.73105        0.29780
H          6.69380        2.21768        0.04026
H          6.78568        3.20708       -1.26264
H          8.77816        2.66622        1.05907
H          8.97733        2.40256       -0.70163
H          9.09459        4.03067        0.02225
H          5.63132        5.37008       -1.75326
H          6.89757        6.67232       -1.87695
H          7.37384        4.98923       -2.09173
H          7.09842       10.08108        5.97927
C          5.80811       10.37130        7.66523
C          6.04490        9.89760        6.24879
C          4.34782       10.20402        8.09676
H          6.46318        9.80156        8.36155
H          6.08205       11.45008        7.73134
H          3.68343       10.77751        7.41531
H          4.06185        9.12966        8.06183
C          4.16035       10.74119        9.50942
H          5.39535       10.48336        5.54152
H          4.82183       10.19936       10.21856
H          4.41340       11.82300        9.52485
H          3.10608       10.61470        9.83002
C          2.20985        3.37270        2.50380
C          1.66505        2.21043        3.01437
C          2.54123        1.20429        2.70008
C          3.63822        1.80818        2.14294
N          3.40662        3.11677        1.93146
C          4.91605        1.10945        1.85036
N          5.96027        1.34592        2.87947
C          5.77495        0.60749        4.16376
H          0.73675        2.09601        3.55858
H          1.74495        4.34883        2.54295
H          2.46000        0.15561        2.95539
H          5.17596        1.48685        0.90398
H          4.83478        0.04718        1.61794
C          5.52866       -0.89532        3.97426
C          7.06886        0.69842        4.98385
C          4.61284        1.22251        4.97173
H          6.41811       -1.37611        3.51192
H          5.33892       -1.36703        4.96002
H          4.63232       -1.09249        3.36042
H          7.40841        1.69377        5.05077
H          6.93348        0.28119        6.01097
H          7.94009        0.24987        4.47769
H          4.56310        2.31378        4.85485
H          3.65155        0.93692        4.63268
H          4.53293        0.83502        6.00067
Mg         5.69535        7.87336        5.82572
C          2.09773        4.45600       -1.66065
C          3.67368        2.73895       -1.48413
O          3.40572        4.10109       -1.11613
C          0.94436        3.42937       -1.40282
C          3.90968        2.61734       -3.00219
H          1.85590        5.49490       -1.38736
H          2.11804        4.61912       -2.76329
H          4.52949        2.31040       -0.95565
H          2.90223        2.05263       -1.08209
H          4.84931        3.14880       -3.25594
H          3.90017        1.57333       -3.36669
H          3.10527        3.06874       -3.59477
H          0.90873        3.19410       -0.32228
H         -0.03973        3.77982       -1.77486
H          1.08258        2.46747       -1.96191
C          3.12180        7.37737        1.61565
C          3.06867        8.29879        2.65691
C          3.84099        7.80628        3.66196
C          4.35613        6.61115        3.20988
N          3.90770        6.32929        1.93068
C          5.32484        5.78667        3.97527
N          5.38645        5.97516        5.46946
C          6.53063        5.17820        6.07431
H          2.53448        9.23772        2.68827
H          2.60718        7.49314        0.68532
H          4.02853        8.26816        4.62708
H          5.13004        4.73823        3.69740
H          6.28223        6.11665        3.53373
C          7.89193        5.61326        5.51059
C          6.60970        5.28190        7.62678
C          6.41149        3.70323        5.81273
H          8.03817        6.69625        5.67061
H          8.69766        5.04944        6.02350
H          8.00620        5.35370        4.43797
H          5.69103        4.95644        8.16751
H          7.40503        4.58143        7.98873
H          6.92769        6.28370        7.95189
H          5.58564        3.21791        6.36155
H          6.42484        3.49443        4.71877
H          7.30919        3.24841        6.26332
