95
speciation1392.ct
Na         6.81809        0.73191        0.01408
Mg         2.20471        4.71391       -1.14628
C          6.83823       -2.24920        0.54933
C          8.97797       -1.42873        0.06360
O          7.58651       -1.24654       -0.12733
C          6.97172       -2.20261        2.07642
C          9.75078       -0.41626       -0.76913
H          5.77257       -2.09283        0.28701
H          7.09232       -3.26603        0.16937
H          9.27680       -1.27809        1.12354
H          9.28737       -2.43524       -0.28324
H          9.50721        0.60908       -0.43343
H         10.84386       -0.59082       -0.62987
H          9.50561       -0.53133       -1.84445
H          6.77702       -1.17475        2.44282
H          6.24049       -2.90038        2.53588
H          7.98139       -2.53129        2.40226
H          1.86218        7.07441       -0.16381
C          0.06617        6.89896       -1.35438
C          1.55704        6.64836       -1.14336
C         -0.77868        6.28199       -0.23318
H         -0.10285        7.99844       -1.36369
H         -0.23940        6.47854       -2.33526
H         -0.63288        5.18563       -0.21098
H         -0.47159        6.70350        0.74992
C         -2.26219        6.56895       -0.44857
H          2.14044        7.15531       -1.94069
H         -2.44531        7.66466       -0.46091
H         -2.59993        6.13119       -1.41185
H         -2.85697        6.11912        0.37454
C          6.91418        3.93261        0.10317
C          6.15609        5.08800        0.14525
C          4.84072        4.69085        0.13255
C          4.84932        3.30881        0.07916
N          6.12246        2.83999        0.06409
C          3.61435        2.45623        0.04004
N          2.83651        2.82687       -1.14913
C          1.57335        2.12909       -1.43394
H          6.51746        6.10932        0.18252
H          7.99603        3.90525        0.10383
H          3.97481        5.34043        0.15657
H          3.90941        1.38767       -0.00580
H          3.03844        2.65368        0.96576
C          0.62335        2.24555       -0.23131
C          0.92782        2.84652       -2.63978
C          1.81429        0.66461       -1.84804
H          0.53663        3.31268        0.05699
H         -0.38737        1.85678       -0.47344
H          1.01191        1.68821        0.64422
H          1.58751        2.78588       -3.53345
H         -0.04877        2.38426       -2.90050
H          0.74608        3.92025       -2.42438
H          2.51506        0.62486       -2.71171
H          2.23809        0.06022       -1.02304
H          0.85993        0.19466       -2.17438
Na         4.14650        2.43528       -3.08497
Mg         6.39133        4.73775       -8.25459
H          8.36724        4.91825       -9.97676
C          6.71254        4.37902      -11.25473
C          7.49284        4.23603       -9.95412
C          5.48918        3.45968      -11.28840
H          6.38720        5.43609      -11.35528
H          7.38727        4.12769      -12.10263
H          5.80937        2.40042      -11.18050
H          4.80642        3.71569      -10.44939
C          4.73813        3.61255      -12.61096
H          7.87058        3.19368       -9.85920
H          4.39405        4.66053      -12.74082
H          5.40038        3.34099      -13.46248
H          3.85479        2.94165      -12.62208
C          5.68829        0.84010       -5.57634
C          6.45687        0.98128       -6.71225
C          6.69808        2.33095       -6.85574
C          6.06264        2.95284       -5.80126
N          5.45650        2.04369       -5.02081
C          6.06128        4.41086       -5.49174
N          5.46598        5.21640       -6.57610
C          5.43335        6.67649       -6.29808
H          6.80433        0.18722       -7.35968
H          5.31861       -0.09332       -5.17293
H          7.27652        2.79821       -7.63368
H          5.49276        4.54074       -4.55003
H          7.12012        4.68761       -5.33766
C          6.85595        7.24104       -6.09538
C          4.80560        7.40008       -7.50537
C          4.55267        6.99006       -5.06206
H          7.48792        6.99857       -6.97795
H          6.82690        8.34346       -5.97047
H          7.33873        6.83030       -5.18733
H          3.78967        7.00586       -7.72568
H          4.70739        8.48909       -7.29325
H          5.43442        7.28962       -8.41499
H          3.52512        6.59168       -5.20962
H          4.96951        6.56671       -4.12809
H          4.48535        8.08565       -4.90049
