81
speciation820.ct
Na         0.75116        0.06908       -0.18625
Mg         3.89487       -0.97477        1.00711
C          1.72590       -0.56948        2.96385
C          3.27284       -2.18203        3.68402
O          2.81161       -1.40794        2.59200
C          2.16018        0.60701        3.83783
C          4.30393       -3.18354        3.20837
H          1.27077       -0.17261        2.03895
H          0.90495       -1.14392        3.45770
H          3.74673       -1.54580        4.46210
H          2.43446       -2.77153        4.12536
H          5.19535       -2.64252        2.84329
H          4.60841       -3.83581        4.05423
H          3.88052       -3.81135        2.39676
H          3.00083        1.14044        3.35277
H          1.30930        1.30764        3.97363
H          2.47147        0.26020        4.84507
H          7.76569        0.97623        3.70509
C          8.30422       -1.12650        3.85531
C          7.28889        0.00351        3.47087
C          9.63797       -1.16744        3.07108
H          8.55011       -1.05680        4.93551
H          7.80308       -2.11027        3.71958
H         10.20523       -2.07362        3.38610
H          9.47982       -1.25890        1.98614
C         10.51923        0.04548        3.32778
H          6.42026       -0.11550        4.15047
H         10.01608        0.96845        2.97792
H         10.74563        0.12023        4.41189
H         11.47541       -0.06627        2.77063
C          5.91134        2.75718        1.95463
C          5.32849        4.00399        1.95476
C          4.13118        3.85421        1.31808
C          4.03035        2.51778        0.96334
N          5.12805        1.82593        1.35736
C          2.85025        2.01835        0.20354
N          2.84165        0.55917       -0.06748
C          3.29394        0.23473       -1.42177
H          5.74783        4.91836        2.35524
H          6.88502        2.55009        2.36557
H          3.41625        4.64086        1.10472
H          1.92399        2.28888        0.73559
H          2.85848        2.62156       -0.72263
C          4.77636        0.59113       -1.50889
C          3.08227       -1.24336       -1.56193
C          2.48322        0.84395       -2.59049
H          5.23754        0.06832       -0.66911
H          5.25709        0.29349       -2.45239
H          4.97074        1.67303       -1.37962
H          2.01529       -1.54269       -1.52724
H          3.50676       -1.55579       -2.53367
H          3.53381       -1.73434       -0.69670
H          1.45181        0.42789       -2.60615
H          2.41032        1.93853       -2.60894
H          2.97553        0.54357       -3.54382
Mg         6.14710        0.08029        1.29459
C          8.02741        1.14238       -0.88389
C          9.01219        0.37680       -1.49641
C          8.98247       -0.87547       -0.89465
C          7.91887       -0.83043       -0.00427
N          7.39905        0.37845        0.03106
C          7.17754       -1.83043        0.81932
N          5.76181       -2.01004        0.39719
C          5.84662       -3.11153       -0.74224
H          9.64424        0.66876       -2.32136
H          7.73947        2.14208       -1.16019
H          9.57196       -1.73939       -1.14137
H          7.75073       -2.67905        1.19066
H          7.04073       -1.47178        1.79672
C          6.75605       -4.32594       -0.33282
C          4.52985       -3.87808       -1.11231
C          6.37556       -2.55182       -2.09821
H          6.28617       -4.86120        0.52311
H          6.86362       -5.03572       -1.17672
H          7.81766       -4.13603       -0.11690
H          4.76207       -4.82193       -1.66009
H          3.93814       -3.45864       -1.92955
H          3.90869       -4.14062       -0.23958
H          5.72234       -1.77673       -2.51428
H          7.38354       -2.15194       -2.08019
H          6.43463       -3.34802       -2.86607
