96
speciation1572.ct
Na         1.22835        0.61573        0.59813
Mg         3.81300        2.00629        0.01767
C          3.63174        4.58051       -1.52003
C          1.57958        3.47310       -1.22434
O          2.99516        3.33660       -1.26610
C          3.19547        5.79102       -0.68466
C          0.97054        3.78854       -2.60725
H          4.66578        4.42622       -1.27799
H          3.59664        4.81655       -2.60805
H          1.16335        2.54336       -0.82547
H          1.24019        4.20881       -0.47215
H          1.26485        3.04761       -3.37701
H         -0.13780        3.79490       -2.54132
H          1.28910        4.78802       -2.96956
H          3.25900        5.54911        0.39536
H          3.87337        6.64343       -0.90408
H          2.17030        6.12470       -0.94849
H          3.53590        1.89525        2.65816
C          1.58616        2.82256        2.56798
C          2.99037        2.59179        1.98605
C          1.67846        3.35195        4.01789
H          1.06455        3.57890        1.94266
H          1.00420        1.87964        2.56185
H          2.16842        2.58884        4.66412
H          2.29789        4.27966        4.05531
C          0.30799        3.68378        4.60451
H          3.40658        3.59713        2.00312
H         -0.17266        4.49828        4.02057
H         -0.34556        2.78744        4.59384
H          0.41887        4.02879        5.65564
C          6.33093       -2.75966       -0.92854
C          5.55783       -3.82076       -0.48058
C          4.42933       -3.29915        0.09640
C          4.50347       -1.96399        0.03334
N          5.69142       -1.55042       -0.60607
C          3.45959       -1.01720        0.56314
N          2.98690       -0.02064       -0.43159
C          2.33662       -0.62480       -1.66869
H          5.83784       -4.86784       -0.58762
H          7.29033       -2.83168       -1.42556
H          3.63032       -3.87939        0.53933
H          3.90866       -0.45051        1.41095
H          2.60824       -1.58367        0.98029
C          1.22016       -1.64629       -1.30019
C          1.65810        0.47360       -2.48191
C          3.32329       -1.31113       -2.64643
H          0.49081       -1.20604       -0.58794
H          0.64562       -1.95472       -2.20424
H          1.63231       -2.57146       -0.85161
H          2.40695        1.24805       -2.73608
H          1.24067        0.07945       -3.43527
H          0.78365        0.87336       -1.94392
H          4.14315       -0.62416       -2.93817
H          3.73453       -2.25785       -2.26420
H          2.78660       -1.63058       -3.56861
Mg         6.70688        0.56463        1.48713
C          8.89731       -0.68486        2.78423
C          7.21546       -2.18506        2.08705
O          7.49751       -0.88843        2.59279
C          9.74290       -0.80951        1.50452
C          7.53552       -3.34887        3.03362
H          9.03557        0.32942        3.19664
H          9.30108       -1.33414        3.58735
H          6.12863       -2.23743        1.94106
H          7.71504       -2.35265        1.11901
H          6.93745       -3.27380        3.96381
H          7.26937       -4.30165        2.52136
H          8.61398       -3.40942        3.27824
H          9.31829       -0.18148        0.69498
H         10.78229       -0.48175        1.71065
H          9.80863       -1.86250        1.15896
C          7.03316        4.43591       -3.41103
C          8.35907        4.10804       -3.25919
C          8.41904        3.02165       -2.39355
C          7.16879        2.71479       -2.00975
N          6.24516        3.54480       -2.66817
C          6.78905        1.65563       -0.98482
N          6.09728        2.13770        0.25403
C          6.86010        3.23633        1.01891
H          9.18999        4.63604       -3.71057
H          6.64532        5.26159       -3.99401
H          9.33008        2.55037       -2.04752
H          7.71266        1.11719       -0.68857
H          6.14652        0.90478       -1.48321
C          7.02628        4.61028        0.30880
C          6.16171        3.56817        2.35185
C          8.27488        2.76118        1.41947
H          6.06444        5.06815        0.05378
H          7.50782        5.34069        0.99684
H          7.70337        4.60683       -0.55122
H          5.93641        2.65985        2.94725
H          6.79550        4.23487        2.98069
H          5.27980        4.18439        2.17007
H          8.18787        1.90814        2.09989
H          8.91365        2.49516        0.55728
H          8.82005        3.55413        1.98298
