110
speciation2403.ct
Na         2.23711       -1.33381       -2.09822
Mg         6.77938        2.18171       -0.67885
C         -0.89496       -2.05808       -0.67019
C          0.88558       -2.10624        0.91487
O          0.52414       -1.88461       -0.46824
C         -1.86527       -1.45226        0.40334
C          0.68956       -3.56241        1.38715
H         -1.16872       -1.55536       -1.61731
H         -1.14064       -3.13704       -0.77556
H          1.94511       -1.83361        1.05103
H          0.35302       -1.41148        1.59109
H          1.34992       -4.24670        0.81834
H          0.94460       -3.63719        2.46830
H         -0.36211       -3.90530        1.28607
H         -1.70238       -0.35987        0.54494
H         -2.92083       -1.60010        0.09388
H         -1.78432       -1.95135        1.39831
H          9.40776        1.63886        0.14307
C          8.80227       -0.40059        0.44029
C          8.48051        1.11682        0.45803
C          9.06720       -0.92105       -0.97261
H          9.69388       -0.60664        1.07550
H          7.96981       -0.95958        0.88973
H          8.17292       -0.71693       -1.57293
H          9.93923       -0.39344       -1.41230
C          9.31359       -2.43240       -1.03966
H          8.30656        1.38156        1.52066
H         10.23003       -2.71685       -0.48135
H          8.44374       -2.99183       -0.63136
H          9.44548       -2.73316       -2.10311
C          3.52015       -1.03668       -5.27966
C          4.59916       -0.76172       -6.12354
C          5.58273       -0.25985       -5.33596
C          5.06850       -0.12115       -4.06047
N          3.80906       -0.72311       -3.98558
C          5.93529        0.41090       -2.95211
N          5.98349        1.89970       -2.67694
C          7.03575        2.69309       -3.40054
H          4.70240       -0.92597       -7.19231
H          2.61613       -1.48097       -5.64735
H          6.57719       -0.03320       -5.68643
H          6.94385       -0.00100       -3.12562
H          5.70233       -0.12790       -2.04399
C          6.78135        2.81478       -4.89502
C          6.97303        4.14156       -2.93419
C          8.46538        2.17841       -3.08323
H          5.78534        3.26872       -5.02345
H          7.53000        3.48270       -5.37032
H          6.86550        1.89681       -5.43385
H          7.34406        4.19362       -1.93792
H          7.67707        4.79277       -3.49764
H          5.94987        4.57324       -3.00081
H          8.64192        2.23098       -1.99148
H          8.66623        1.14412       -3.40923
H          9.22963        2.81854       -3.57089
Na         2.54603        4.74640       -1.21451
Mg         4.08429        2.67928       -3.09722
C          2.89948        2.56238       -5.78956
C          3.37713        4.80258       -5.05918
O          3.23964        3.43017       -4.71529
C          3.80113        2.64647       -7.03199
C          2.07285        5.44603       -5.55530
H          2.97470        1.54242       -5.38380
H          1.83344        2.68053       -6.08582
H          3.67196        5.34963       -4.13979
H          4.19420        4.95393       -5.79401
H          1.27469        5.36517       -4.78857
H          2.24900        6.52404       -5.76595
H          1.72129        4.97861       -6.49854
H          4.86873        2.59896       -6.78009
H          3.59745        1.78169       -7.69543
H          3.60781        3.57751       -7.60404
H          7.84173        4.70468        0.02882
C          6.64907        4.85318        1.74954
C          6.85283        4.29504        0.34527
C          7.70022        4.34082        2.72525
H          6.71798        5.96949        1.70509
H          5.62973        4.58708        2.09468
H          7.64280        3.23715        2.75603
H          8.71794        4.64827        2.39095
C          7.44236        4.89103        4.12245
H          6.06696        4.80693       -0.25549
H          7.53958        5.99965        4.13336
H          6.41944        4.61526        4.45591
H          8.17835        4.45983        4.83168
C          4.31441       -1.45267       -0.43643
C          5.28294       -1.02676        0.40544
C          5.13451        0.34753        0.49110
C          4.06880        0.70573       -0.30298
N          3.57606       -0.43778       -0.87331
C          3.59057        2.17258       -0.43463
N          2.76428        2.64367       -1.57694
C          1.32650        2.23404       -1.68741
H          6.00039       -1.67570        0.87518
H          4.14058       -2.48917       -0.73623
H          5.75952        1.00653        1.06661
H          3.17525        2.50683        0.53590
H          4.53020        2.75321       -0.53765
C          0.54671        2.47034       -0.37367
C          0.60448        2.99339       -2.81700
C          1.24373        0.79321       -2.06044
H          0.49708        3.55049       -0.13241
H         -0.48936        2.07422       -0.46592
H          1.01364        1.93260        0.47795
H          1.06649        2.79492       -3.79897
H         -0.44705        2.62524       -2.89906
H          0.55884        4.08140       -2.63073
H          1.99177        0.62043       -2.86432
H          1.40668        0.24387       -1.12632
H          0.25204        0.46292       -2.42825
