81
speciation650.ct
Na         2.11897        0.23207        0.59140
Mg         2.60242        2.18793       -1.46424
C          5.22407        3.36405       -1.50456
C          5.25879        1.30441       -2.72282
O          4.53832        2.17161       -1.83235
C          6.39115        3.12755       -0.54013
C          5.81571        1.93426       -4.01056
H          5.54563        3.91306       -2.40957
H          4.50357        4.04662       -1.01210
H          6.10633        0.82388       -2.20292
H          4.58884        0.47987       -3.02187
H          6.62524        2.66318       -3.79228
H          6.28859        1.14012       -4.62968
H          5.01035        2.41634       -4.59766
H          7.12334        2.39939       -0.94574
H          6.92787        4.08583       -0.37959
H          6.01854        2.75617        0.43690
H          0.79511        2.58875       -3.52159
C          1.85954        0.93738       -4.42976
C          1.83226        2.19041       -3.53467
C          0.82903       -0.11074       -3.99578
H          1.61611        1.23616       -5.47494
H          2.87970        0.50701       -4.43815
H          1.00328       -0.41039       -2.94483
H         -0.18807        0.33098       -4.08036
C          0.88847       -1.35506       -4.88680
H          2.45986        2.96232       -4.02731
H          0.70554       -1.09024       -5.95111
H          1.88104       -1.84685       -4.80188
H          0.10754       -2.07804       -4.56817
C         -1.94867       -0.94896        0.48231
C         -2.91991        0.00431        0.69983
C         -2.33385        1.23015        0.44175
C         -1.02885        0.97687        0.06603
N         -0.80558       -0.35080        0.10156
C         -0.02974        2.01121       -0.43969
N          1.30681        2.08347        0.20245
C          1.45682        3.02492        1.35853
H         -3.94303       -0.18188        1.00141
H         -2.06919       -2.01912        0.58965
H         -2.82305        2.19324        0.49987
H         -0.51127        3.00123       -0.49313
H          0.15065        1.70277       -1.48025
C          0.49346        2.69132        2.52424
C          2.88998        2.90823        1.91463
C          1.23524        4.49007        0.92106
H          0.68248        1.67556        2.93098
H          0.63456        3.41556        3.35935
H         -0.56937        2.76444        2.21297
H          3.64320        3.17026        1.14486
H          3.03661        3.59614        2.77567
H          3.09630        1.87835        2.27772
H          1.91789        4.74952        0.08484
H          0.19100        4.67973        0.61007
H          1.43301        5.18465        1.76805
Mg         0.86615       -1.10641       -0.25597
C          6.74825       -0.76099       -0.20933
C          6.98286       -1.88053       -0.99026
C          5.76211       -2.33569       -1.45546
C          4.82378       -1.51986       -0.98296
N          5.37146       -0.49641       -0.18209
C          3.36558       -1.68401       -1.22800
N          2.62987       -1.66713        0.03273
C          2.74043       -2.72653        1.04606
H          7.96047       -2.30333       -1.18798
H          7.49594       -0.17086        0.30269
H          5.60070       -3.19081       -2.08812
H          3.12123       -2.57541       -1.83624
H          3.03110       -0.79236       -1.80039
C          4.12978       -2.75148        1.71306
C          1.70561       -2.40396        2.13862
C          2.42074       -4.08843        0.41441
H          4.37610       -1.75188        2.13314
H          4.15007       -3.49170        2.53935
H          4.92540       -3.05580        1.01119
H          0.67864       -2.36352        1.71701
H          1.72752       -3.16856        2.94391
H          1.92566       -1.41363        2.59697
H          1.42163       -4.05605       -0.07390
H          3.18032       -4.34668       -0.35350
H          2.42273       -4.88739        1.18409
