66
speciation180.ct
Na         3.92932        1.31267        1.19170
Mg         4.32578       -0.48363       -1.52682
H          2.46116       -1.70365       -2.96906
C          3.29967       -0.80765       -4.68813
C          2.97623       -0.75314       -3.20403
C          4.10015       -2.05913       -5.03284
H          2.33624       -0.85023       -5.24888
H          3.83760        0.11731       -4.98490
H          5.04977       -2.05524       -4.47665
H          3.52956       -2.96725       -4.73674
C          4.38219       -2.12112       -6.52803
H          2.26018        0.07865       -3.09540
H          3.42783       -2.17741       -7.09513
H          4.94697       -1.22044       -6.84994
H          4.98510       -3.02460       -6.75275
C          3.20629       -4.55154       -0.88943
C          3.34858       -5.03331        0.39283
C          3.44890       -3.94180        1.23460
C          3.35260       -2.83629        0.49735
N          3.19015       -3.14683       -0.86956
C          3.51922       -1.45449        1.05832
N          3.09673       -0.36460        0.15641
C          1.62179       -0.04371        0.18233
H          3.39523       -6.07405        0.67975
H          3.12555       -5.15663       -1.78129
H          3.60124       -3.96953        2.30540
H          4.59558       -1.33421        1.26071
H          3.08721       -1.37377        2.06624
C          1.06115        0.07436        1.62611
C          1.40191        1.33514       -0.47512
C          0.75900       -1.09856       -0.54373
H          1.63947        0.81469        2.21742
H         -0.00165        0.40125        1.60606
H          1.05048       -0.89962        2.15676
H          1.79893        1.38031       -1.49954
H          0.31692        1.58029       -0.52376
H          1.90517        2.13556        0.10681
H          0.96805       -1.15135       -1.61346
H          0.87612       -2.10346       -0.09408
H         -0.31818       -0.83524       -0.47087
Mg         6.62610       -1.23150       -3.70665
C          5.34321        3.18760       -4.66886
C          4.33002        3.08861       -3.74232
C          4.76055        2.22873       -2.74643
C          5.99664        1.82403       -3.04915
N          6.42620        2.38935       -4.27212
C          6.87169        0.98014       -2.17996
N          6.36484       -0.39146       -1.97830
C          7.26489       -1.21235       -1.10720
H          3.38611        3.61305       -3.78527
H          5.32898        3.80136       -5.56215
H          4.21899        1.96654       -1.84671
H          6.95723        1.52738       -1.22353
H          7.85933        0.94764       -2.68180
C          7.46481       -0.58198        0.29446
C          6.64197       -2.60254       -0.93867
C          8.65781       -1.43195       -1.75355
H          6.49572       -0.38284        0.78410
H          8.06010       -1.25784        0.94615
H          8.02828        0.37081        0.24517
H          6.49309       -3.09693       -1.92224
H          7.28639       -3.25766       -0.31085
H          5.67344       -2.51619       -0.44037
H          8.55849       -1.93204       -2.74113
H          9.22590       -0.49138       -1.88327
H          9.28616       -2.08207       -1.10479
