110
speciation2671.ct
Na         5.65102        3.78991        3.35467
Mg        -0.04939       -0.34984       -7.48606
C          1.95048       -2.43556       -7.37646
C          2.84138       -0.34893       -8.16867
O          1.69022       -1.11049       -7.82752
C          3.06508       -2.57045       -6.32258
C          3.49290       -0.83982       -9.46296
H          1.01815       -2.80571       -6.90336
H          2.15207       -3.10266       -8.24212
H          2.54987        0.70061       -8.32487
H          3.56779       -0.28991       -7.33410
H          2.77549       -0.75683      -10.30675
H          4.38647       -0.21977       -9.68850
H          3.82479       -1.89426       -9.36964
H          2.86338       -1.90624       -5.45617
H          3.11983       -3.62067       -5.96821
H          4.06156       -2.33301       -6.75228
H          4.76818        2.54956       -4.77386
C          6.29318        3.29494       -3.44567
C          4.81418        3.16338       -3.84988
C          7.09792        4.02294       -4.54517
H          6.37061        3.87797       -2.50918
H          6.72428        2.28638       -3.27070
H          7.04585        3.44503       -5.49323
H          6.66304        5.03171       -4.72469
C          8.56725        4.20535       -4.16397
H          4.46681        4.18560       -4.09072
H          8.65772        4.82646       -3.24736
H          9.04989        3.22104       -3.99096
H          9.10624        4.72193       -4.98864
C          2.77738        3.02060        4.07504
C          1.56570        2.52523        3.61787
C          1.72796        2.26519        2.27545
C          3.02949        2.60201        1.95803
N          3.66380        3.06843        3.06472
C          3.68869        2.48770        0.58401
N          3.09519        3.31599       -0.51087
C          3.20148        4.82501       -0.28105
H          0.67797        2.37955        4.22532
H          2.98862        3.33135        5.09549
H          0.97611        1.86678        1.61473
H          4.77366        2.71593        0.68500
H          3.63417        1.42630        0.29778
C          4.66437        5.26902       -0.05224
C          2.72350        5.62408       -1.48203
C          2.32994        5.34420        0.89786
H          5.29514        4.96250       -0.90575
H          4.72864        6.37987        0.02778
H          5.08822        4.86798        0.88685
H          1.63960        5.50574       -1.57305
H          2.84398        6.71897       -1.33474
H          3.33598        5.38477       -2.36328
H          1.26888        5.03830        0.77350
H          2.69157        5.04236        1.88859
H          2.35448        6.45791        0.93774
Na         1.65706        2.27577       -1.63981
Mg         3.25583        2.25078       -2.56409
C         -2.19265       -0.85402       -9.28334
C         -0.94870        1.07903       -9.78758
O         -1.35757        0.17724       -8.78046
C         -1.49172       -1.79452      -10.26482
C         -0.13591        2.19359       -9.16083
H         -2.52794       -1.46066       -8.41845
H         -3.12248       -0.43270       -9.73132
H         -0.30785        0.58334      -10.54595
H         -1.83602        1.55144      -10.26696
H          0.75875        1.76177       -8.69475
H          0.18844        2.91334       -9.94074
H         -0.72450        2.72217       -8.38292
H         -0.54737       -2.16786       -9.81857
H         -2.15642       -2.65517      -10.48971
H         -1.27887       -1.28317      -11.22615
H          4.34759       -0.13463       -3.51212
C          3.59380       -0.93724       -1.64691
C          4.24790        0.19720       -2.45308
C          4.29908       -2.31967       -1.66117
H          3.50602       -0.61030       -0.59641
H          2.57764       -1.10165       -2.04542
H          3.68581       -2.98998       -1.01790
H          4.31623       -2.76399       -2.68102
C          5.72102       -2.32819       -1.09479
H          5.27325        0.36800       -2.05911
H          6.42532       -1.83013       -1.79194
H          5.75540       -1.83050       -0.10361
H          6.05897       -3.38175       -0.96241
C         -2.32371       -0.02827       -5.66612
C         -2.74583        0.31108       -4.39407
C         -1.60651        0.56909       -3.66320
C         -0.52717        0.38503       -4.52961
N         -0.97991        0.02372       -5.75670
C          0.93267        0.60892       -4.18253
N          1.26779        1.97374       -3.68078
C          0.84792        3.12321       -4.54988
H         -3.77484        0.37099       -4.05001
H         -2.99321       -0.27479       -6.47916
H         -1.57596        0.88203       -2.63017
H          1.55613        0.36326       -5.06659
H          1.17021       -0.11907       -3.39056
C         -0.68755        3.31094       -4.70510
C          1.30736        4.34133       -3.84878
C          1.50661        3.07280       -5.94337
H         -1.18812        3.27537       -3.71160
H         -0.91543        4.30452       -5.15098
H         -1.15199        2.59960       -5.40366
H          2.37873        4.21837       -3.72059
H          1.10061        5.28286       -4.39973
H          0.75838        4.32459       -2.89284
H          2.61336        3.08182       -5.86783
H          1.19693        2.16258       -6.48844
H          1.19581        3.95477       -6.54823
