96
speciation1129.ct
Na         1.04701       -0.00036       -0.08826
Mg         6.52277        4.23775        0.78575
C         -1.73520        0.68613        1.06448
C         -1.84200       -1.29334       -0.19733
O         -1.27299       -0.00036       -0.08826
C         -1.35344        0.02487        2.39779
C         -1.29359       -2.00165       -1.42651
H         -1.26387        1.69098        1.04675
H         -2.83262        0.85937        1.00872
H         -1.59523       -1.93842        0.67049
H         -2.94545       -1.21059       -0.31758
H         -0.19871       -2.15840       -1.31989
H         -1.78363       -2.99511       -1.52755
H         -1.49426       -1.40784       -2.34178
H         -0.25998       -0.16190        2.43872
H         -1.63555        0.69614        3.23546
H         -1.90095       -0.92714        2.55603
H          7.76766        6.48929        2.48683
C          6.01466        6.71359        3.51366
C          6.73490        6.21330        2.24183
C          6.68039        6.11612        4.75806
H          6.11291        7.82273        3.60323
H          4.93211        6.50986        3.44530
H          6.70106        5.01826        4.66126
H          7.73322        6.47039        4.79733
C          6.00813        6.52329        6.06965
H          6.48826        6.94592        1.44960
H          6.04431        7.62223        6.21394
H          4.94833        6.21210        6.12308
H          6.54939        6.02908        6.90268
C          8.04074        1.85621        1.12637
C          8.17075        0.88210        2.05921
C          6.97852        0.24369        2.16026
C          6.11427        0.74495        1.16535
N          6.74802        1.95050        0.76297
C          4.67555       -0.17448        0.88565
N          3.41701       -0.00036       -0.08826
C          3.88006        0.41773       -1.44014
H          9.06578        0.76676        2.67814
H          8.81056        2.57269        0.87013
H          6.76951       -0.52439        2.89306
H          5.16337       -1.09132        0.51339
H          4.35401       -0.65378        1.83963
C          5.10697       -0.38093       -1.97665
C          2.74569        0.23724       -2.46103
C          4.21987        1.89387       -1.42153
H          4.88293       -1.46654       -1.99335
H          5.37188       -0.06530       -3.01169
H          6.03031       -0.21619       -1.37543
H          1.85739        0.83854       -2.17458
H          3.07263        0.59090       -3.46613
H          2.45720       -0.82989       -2.55010
H          3.36954        2.37157       -0.92602
H          5.07975        2.12519       -0.80954
H          4.43079        2.30746       -2.43145
Mg         4.08033        1.05217        1.46489
C          7.87863        4.04135       -1.61743
C          9.24855        5.48554       -0.44747
O          7.90641        4.97883       -0.54516
C          7.91226        4.70798       -3.03557
C          9.50367        6.45707        0.68592
H          8.67087        3.26684       -1.49737
H          6.91634        3.50470       -1.53385
H         10.00166        4.68069       -0.37332
H          9.45995        6.12879       -1.33391
H          9.53711        5.92646        1.64911
H         10.50209        6.92671        0.56961
H          8.76585        7.30225        0.65464
H          8.94582        5.14211       -3.17271
H          7.79299        3.90426       -3.78841
H          7.17561        5.47960       -3.07987
C          5.02740        1.65424        4.25138
C          4.90959        2.68655        5.14960
C          4.50849        3.78692        4.41942
C          4.41298        3.39673        3.09626
N          4.74366        2.10469        3.01805
C          3.76889        4.20550        1.98796
N          4.51429        4.40918        0.70880
C          3.88425        5.42240       -0.19219
H          4.99088        2.61423        6.22704
H          5.16790        0.61160        4.50951
H          4.20643        4.73404        4.81957
H          2.81632        3.69112        1.75568
H          3.50619        5.17105        2.44403
C          3.64974        6.80072        0.45484
C          4.84251        5.59096       -1.37028
C          2.51463        4.95686       -0.73916
H          4.54857        7.25642        0.86775
H          3.27075        7.50718       -0.31697
H          2.86797        6.77557        1.23755
H          5.01348        4.61367       -1.86420
H          4.44612        6.29445       -2.12140
H          5.80029        5.98624       -0.99645
H          2.56185        4.11551       -1.43242
H          1.80379        4.72832        0.08086
H          2.05821        5.76135       -1.35533
