110
speciation2134.ct
Na         0.82352        0.18361        1.21041
Mg         0.43873       -2.07278       -3.83323
C          0.27011        3.49920        0.64497
C         -1.10501        2.46803        2.22450
O          0.04547        2.30691        1.42059
C          1.00601        4.56146        1.45023
C         -1.63694        1.10542        2.60786
H          0.91021        3.26881       -0.21057
H         -0.66036        3.92974        0.19566
H         -0.81705        3.01601        3.14453
H         -1.93560        3.00315        1.69950
H         -0.82523        0.50821        3.06999
H         -2.46505        1.22592        3.33526
H         -2.01986        0.57878        1.71110
H          1.91284        4.13578        1.91859
H          1.31766        5.39369        0.76674
H          0.34390        4.99724        2.22398
H         -1.77416       -3.39085       -4.50882
C         -0.31150       -4.44348       -5.71132
C         -0.85776       -3.15880       -5.09183
C          0.06458       -5.46148       -4.63377
H         -1.08911       -4.88226       -6.37620
H          0.57964       -4.20105       -6.32672
H          0.83220       -5.02526       -3.96690
H         -0.82922       -5.71454       -4.02325
C          0.62007       -6.74015       -5.25632
H         -1.13821       -2.46119       -5.90999
H         -0.14825       -7.22436       -5.89645
H          1.51678       -6.51340       -5.87213
H          0.91193       -7.44863       -4.45291
C          0.09742       -3.15596        1.28026
C         -0.49962       -4.27198        0.73713
C         -1.23918       -3.84467       -0.33020
C         -1.06343       -2.48262       -0.42339
N         -0.24194       -2.03927        0.60846
C         -1.75050       -1.69378       -1.55263
N         -0.88189       -1.07519       -2.59757
C         -0.17872        0.16093       -2.23204
H         -0.39828       -5.30144        1.06612
H          0.77655       -3.16563        2.12027
H         -1.83010       -4.47220       -0.99239
H         -2.41361       -2.39695       -2.10496
H         -2.46717       -0.96878       -1.12100
C          1.03475       -0.22962       -1.43497
C          0.34437        0.82140       -3.47819
C         -1.07216        1.18875       -1.50348
H          1.55462       -1.13698       -1.81314
H          1.71975        0.58671       -1.20700
H          0.62612       -0.48359       -0.54510
H         -0.45546        1.07065       -4.19379
H          0.88345        1.74758       -3.22251
H          1.04928        0.12506       -3.90100
H         -1.90062        1.54577       -2.14791
H         -1.47955        0.82487       -0.54039
H         -0.45850        2.05711       -1.27118
Na         4.60870        5.15494       -0.07129
Mg         6.63932        2.61311       -0.49781
C          2.74344       -1.11274       -5.44417
C          3.05755       -3.16267       -4.27008
O          2.35104       -1.93132       -4.32928
C          2.68095       -1.77597       -6.81820
C          4.55180       -2.98674       -3.95600
H          2.06886       -0.25274       -5.55152
H          3.73566       -0.64950       -5.25660
H          2.63850       -3.76085       -3.43763
H          2.90702       -3.76487       -5.18767
H          4.68693       -2.53266       -2.95147
H          5.04885       -3.98007       -3.96781
H          5.06710       -2.35753       -4.70993
H          1.66691       -2.19043       -6.98505
H          2.88319       -1.00840       -7.59600
H          3.45219       -2.56281       -6.92763
H          8.53621        0.85788       -0.47045
C          9.10151        2.42003        0.90313
C          8.53823        1.96786       -0.43134
C          9.12344        3.94458        1.04902
H          8.48759        1.97671        1.71774
H         10.13741        2.03191        0.99125
H          9.59750        4.18601        2.02392
H          9.73938        4.39097        0.23908
C          7.73001        4.58083        1.03486
H          9.11805        2.36068       -1.29274
H          7.23792        4.43971        0.05452
H          7.09741        4.14626        1.83978
H          7.82182        5.67327        1.20634
C          3.78068       -1.18408        0.76908
C          5.11529       -1.03054        0.44116
C          5.30416        0.30275        0.21717
C          4.09124        0.91535        0.39245
N          3.13462        0.02178        0.73729
C          3.88129        2.39734        0.25925
N          4.79599        3.10699       -0.67457
C          4.57606        3.02662       -2.14073
H          5.88251       -1.79048        0.36830
H          3.31927       -2.12772        1.00360
H          6.23829        0.75540       -0.05541
H          2.83570        2.61764        0.06452
H          4.06245        2.81533        1.26837
C          3.09751        3.12681       -2.50458
C          5.31655        4.20506       -2.79946
C          5.15784        1.71774       -2.71705
H          2.63164        4.03997       -2.08246
H          2.95102        3.10335       -3.60596
H          2.60249        2.24812       -2.08978
H          6.40943        4.14291       -2.60920
H          5.15568        4.20577       -3.90075
H          4.94598        5.17512       -2.40576
H          6.23531        1.62187       -2.46204
H          4.61732        0.82769       -2.33872
H          5.07271        1.70866       -3.82611
