110
speciation2481.ct
Na         0.76193       -0.22153        0.43515
Mg         2.13736        4.60689       -1.04432
C          0.33157       -3.22201        0.22913
C         -1.28112       -1.89310       -0.94658
O         -0.33812       -1.97030        0.10659
C          0.97274       -3.77207       -1.05330
C         -2.54111       -2.70811       -0.65008
H          1.14576       -3.07606        0.96849
H         -0.34418       -3.98212        0.67871
H         -1.59929       -0.83379       -1.03210
H         -0.83950       -2.15104       -1.92909
H         -3.01699       -2.34797        0.28679
H         -3.26209       -2.59058       -1.48605
H         -2.30437       -3.78656       -0.55017
H          1.62680       -3.00992       -1.52466
H          1.58671       -4.66265       -0.79976
H          0.20127       -4.11040       -1.77781
H          3.31317        5.20938       -3.37399
C          3.48689        7.06262       -2.26341
C          2.69236        5.82979       -2.69159
C          3.88777        7.94051       -3.46096
H          2.87044        7.66111       -1.56207
H          4.40154        6.71647       -1.73744
H          4.46987        7.34108       -4.19451
H          2.97741        8.33252       -3.96665
C          4.75281        9.11630       -3.00817
H          1.77148        6.13757       -3.23233
H          4.19917        9.75293       -2.28627
H          5.68098        8.74134       -2.52562
H          5.03942        9.73721       -3.88376
C         -1.50807        1.10119        1.97856
C         -0.39924        1.03517        2.79531
C          0.43750        2.09296        2.46028
C         -0.18154        2.74084        1.37947
N         -0.98053        1.68187        0.91636
C         -0.16250        4.30150        0.65525
N          1.00114        5.34341        0.33007
C          1.66532        5.77795        1.65011
H         -0.23589        0.30269        3.57618
H         -2.16536        0.25801        1.94391
H          1.29319        2.24631        3.05680
H         -0.98341        4.86462        1.13689
H         -0.71936        4.20046       -0.30224
C          2.34198        4.67190        2.41523
C          2.79865        6.77764        1.42630
C          0.64726        6.41186        2.66058
H          3.13507        4.21884        1.82964
H          2.84266        4.99890        3.34987
H          1.54061        4.11251        2.79951
H          2.39541        7.69215        1.01471
H          3.27232        7.04906        2.40324
H          3.59056        6.35636        0.77265
H          0.29788        7.41048        2.34631
H         -0.22770        5.76295        2.86567
H          1.11460        6.52552        3.66789
Na         0.46666        7.62225       -0.04158
Mg         3.86571        2.45981       -2.79186
C         -1.10162       10.11556       -1.32724
C          1.07097       10.63526       -0.79381
O         -0.05655        9.85301       -0.40538
C         -2.37376        9.38193       -0.94075
C          2.26413       10.45672        0.13610
H         -1.35479       11.20179       -1.29994
H         -0.81645        9.82796       -2.36567
H          1.40588       10.38036       -1.82555
H          0.81389       11.71707       -0.73279
H          2.67713        9.44848        0.03123
H          3.07946       11.14673       -0.16923
H          1.99404       10.66978        1.19220
H         -2.64901        9.62058        0.10750
H         -3.19932        9.71494       -1.60835
H         -2.24005        8.28729       -1.05672
H          5.07181        1.02937       -4.63973
C          6.36962        2.73785       -4.30062
C          4.99330        2.12275       -4.45815
C          7.09068        2.09675       -3.11740
H          6.95032        2.57044       -5.23444
H          6.25701        3.83116       -4.13465
H          6.49693        2.25172       -2.19114
H          7.19676        1.00436       -3.29822
C          8.47428        2.70382       -2.92993
H          4.46944        2.58867       -5.31911
H          9.07863        2.57416       -3.85312
H          8.38737        3.78642       -2.69707
H          8.98941        2.19426       -2.08933
C          4.07185       -1.18945        0.36427
C          5.39889       -0.79217        0.24742
C          5.38370        0.56329        0.09536
C          4.05083        0.94423        0.10840
N          3.21946       -0.12901        0.31252
C          3.61095        2.36856       -0.01043
N          2.76576        2.78861       -1.16641
C          1.79075        1.87799       -1.86342
H          6.28838       -1.41419        0.25817
H          3.76404       -2.21641        0.47489
H          6.25219        1.21006       -0.01394
H          3.05757        2.49067        0.91619
H          4.50285        3.04008       -0.00801
C          0.86541        1.60930       -0.87107
C          0.92298        2.55077       -2.98720
C          2.34028        0.56315       -2.49788
H          0.44997        2.56651       -0.75213
H          0.05708        0.91048       -1.15242
H          1.39614        1.47357        0.07493
H          1.46462        2.73323       -3.92175
H          0.06297        1.86430       -3.22680
H          0.43696        3.49456       -2.64249
H          2.89613        0.77970       -3.42150
H          2.98804       -0.09531       -1.92774
H          1.48152       -0.09031       -2.78054
