110
speciation1931.ct
Na        -0.66154        5.05509       -2.62095
Mg        -2.02176       -0.80308        1.45561
C         -2.66169        5.03363       -5.45629
C         -3.44214        4.18531       -3.44609
O         -2.39619        4.89231       -4.05841
C         -3.85204        5.97459       -5.73556
C         -3.02049        3.91411       -2.04895
H         -1.77051        5.45869       -5.95671
H         -2.85023        4.04617       -5.95044
H         -4.35720        4.80539       -3.37859
H         -3.63331        3.20162       -3.93974
H         -2.79506        4.87561       -1.53568
H         -3.85162        3.39488       -1.53677
H         -2.10978        3.28018       -2.08298
H         -3.69663        6.94763       -5.22971
H         -3.97840        6.14483       -6.82631
H         -4.81596        5.53827       -5.38294
H          0.20612       -1.66059        0.01821
C          0.90173        0.25629        0.80826
C         -0.21542       -0.66868        0.27134
C          1.54607       -0.13390        2.14766
H          1.69668        0.37011        0.04086
H          0.46343        1.23485        0.96235
H          0.77287       -0.15333        2.93099
H          2.02782       -1.12672        2.05013
C          2.59695        0.89343        2.59977
H         -0.58019       -0.20810       -0.66976
H          3.41105        0.99144        1.85331
H          2.14165        1.89217        2.75548
H          3.03872        0.58007        3.57033
C          0.74160        4.99497        0.11875
C          1.04023        4.57349        1.38809
C          0.15772        3.57149        1.67606
C         -0.70189        3.40630        0.58291
N         -0.29623        4.28588       -0.40880
C         -1.84842        2.37227        0.49270
N         -2.14582        1.46305        1.66642
C         -2.93936        2.10573        2.79092
H          1.82083        4.95070        2.03387
H          1.27250        5.77166       -0.40602
H          0.17014        3.01899        2.58407
H         -2.75909        2.90648        0.22954
H         -1.62364        1.73838       -0.38486
C         -4.19550        2.87658        2.30271
C         -3.36215        1.02762        3.77448
C         -2.11620        3.09290        3.64606
H         -4.83606        2.24633        1.65678
H         -4.79661        3.23150        3.16809
H         -3.91897        3.80222        1.75048
H         -2.49765        0.40721        4.08650
H         -3.85366        1.45327        4.67703
H         -4.10135        0.43147        3.29436
H         -1.23862        2.58768        4.10331
H         -1.83654        3.99961        3.07984
H         -2.72186        3.47694        4.49660
Na        -5.77851       -5.32009       -2.38361
Mg        -2.94703       -0.16678        0.77840
C          1.34279        4.83981       -4.50867
C          2.18564        6.54547       -3.17058
O          0.99494        5.93265       -3.68385
C          1.85173        3.64453       -3.69700
C          1.88992        7.87369       -2.48909
H          0.41249        4.53179       -5.02729
H          2.05554        5.12110       -5.31746
H          2.71160        5.89165       -2.44415
H          2.88436        6.79024       -4.00630
H          1.25916        7.72335       -1.59424
H          2.85234        8.33844       -2.16491
H          1.38537        8.56820       -3.18951
H          1.14715        3.42137       -2.86865
H          1.93309        2.75648       -4.35404
H          2.85778        3.84472       -3.27273
H         -0.69399       -2.92894        2.54545
C         -2.35712       -2.74385        3.87414
C         -1.23439       -2.10303        3.06829
C         -1.88629       -3.70053        4.98875
H         -2.99644       -1.94767        4.29958
H         -2.91668       -3.34224        3.14399
H         -1.26894       -4.50754        4.53930
H         -1.27319       -3.15726        5.73832
C         -3.07382       -4.35501        5.71201
H         -0.50622       -1.62446        3.74554
H         -3.63990       -3.60717        6.30881
H         -3.76654       -4.83517        4.98751
H         -2.70680       -5.14156        6.40682
C         -3.75668       -6.49704       -0.54126
C         -2.70204       -6.36555        0.33692
C         -2.43394       -5.00664        0.43528
C         -3.33460       -4.36426       -0.41142
N         -4.13642       -5.28989       -1.00135
C         -3.37918       -2.84291       -0.67273
N         -3.75061       -1.98514        0.49965
C         -5.19916       -2.16887        0.95152
H         -2.18651       -7.16499        0.84912
H         -4.20673       -7.43152       -0.84150
H         -1.66677       -4.55413        1.01607
H         -4.06215       -2.65728       -1.52414
H         -2.37657       -2.55517       -1.03894
C         -5.47612       -3.50626        1.68872
C         -5.55272       -1.07088        1.92677
C         -6.23322       -2.08118       -0.21373
H         -4.86523       -3.62607        2.59163
H         -6.52768       -3.53257        2.05457
H         -5.36622       -4.40090        1.05850
H         -5.35825       -0.07582        1.47307
H         -6.62103       -1.11074        2.23471
H         -4.96402       -1.27858        2.83337
H         -6.18544       -1.10668       -0.74117
H         -6.12479       -2.91063       -0.94185
H         -7.26827       -2.19313        0.18650
