84
speciation2258.ct
Na         0.98472        0.07778       -0.06096
Mg         4.32623        0.28772        4.80038
C         -2.00792        0.69653        1.01300
C         -1.93732       -1.16016       -0.37585
O         -1.33528        0.07778       -0.06096
C         -1.36546        2.04332        1.30392
C         -1.14980       -1.84749       -1.48177
H         -3.06530        0.90116        0.72432
H         -1.97486        0.06930        1.93163
H         -1.97232       -1.83858        0.50640
H         -2.96286       -0.98382       -0.77261
H         -0.13669       -2.10985       -1.11704
H         -1.66810       -2.78156       -1.78647
H         -1.06534       -1.18121       -2.36718
H         -1.37805        2.67631        0.39072
H         -1.93356        2.56159        2.10567
H         -0.31625        1.90041        1.63664
H          2.88123       -0.68910        6.87639
C          2.50756        1.41784        7.21410
C          3.42963        0.26969        6.76656
C          1.22188        1.48866        6.37961
H          2.22727        1.25129        8.27940
H          3.05524        2.38284        7.14767
H          1.47900        1.67423        5.31710
H          0.67407        0.52388        6.45207
C          0.29522        2.60496        6.86955
H          4.29916        0.24616        7.45804
H         -0.02285        2.41814        7.91837
H          0.80526        3.59017        6.81658
H         -0.61404        2.64413        6.23198
C          3.53108        2.86672        3.71466
C          3.24273        3.59855        2.59027
C          3.34818        2.74174        1.51522
C          3.68902        1.50756        2.03771
N          3.80817        1.58655        3.38968
C          4.00360        0.24928        1.27562
N          3.35472        0.07778       -0.06096
C          3.73308       -1.21719       -0.69960
H          3.00114        4.65494        2.56862
H          3.54288        3.23905        4.73527
H          3.21726        3.00379        0.47640
H          3.74383       -0.57694        1.95758
H          5.11034        0.26562        1.16562
C          3.31762       -2.44375        0.15732
C          2.99046       -1.31242       -2.04096
C          5.25403       -1.28955       -0.97533
H          2.23076       -2.41735        0.38498
H          3.54445       -3.38894       -0.38001
H          3.87977       -2.50913        1.11135
H          3.25858       -0.46312       -2.70150
H          3.24383       -2.26236       -2.56230
H          1.89490       -1.29746       -1.87541
H          5.59204       -0.39208       -1.53282
H          5.84069       -1.36703       -0.03694
H          5.50435       -2.19386       -1.56972
Na         4.14471        1.76930       -1.52095
C          3.97365        4.47748       -3.03930
C          5.36273        2.98018       -4.21687
O          4.91804        3.42513       -2.95015
C          2.65995        4.08662       -3.72990
C          6.34687        1.83391       -4.03262
H          3.72701        4.77367       -1.99783
H          4.42421        5.37506       -3.51699
H          4.53618        2.59487       -4.84774
H          5.90024        3.80508       -4.73591
H          5.83380        0.96572       -3.56822
H          6.74599        1.52154       -5.02135
H          7.19283        2.14863       -3.38620
H          2.23009        3.17896       -3.25675
H          1.93321        4.92054       -3.63772
H          2.80683        3.90732       -4.81463
H          4.91851       -2.13604        3.78997
C          6.51704       -2.07392        5.24977
C          5.58409       -1.37634        4.25184
C          5.73914       -2.73309        6.39067
H          7.09812       -2.85574        4.70798
H          7.23386       -1.33196        5.66265
H          5.18095       -1.95303        6.94305
H          5.01745       -3.47340        5.98086
C          6.67426       -3.45021        7.36460
H          6.21713       -0.95253        3.44233
H          7.20352       -4.28485        6.85610
H          7.42444       -2.74269        7.77771
H          6.08271       -3.86884        8.20628
