81
speciation431.ct
Na         0.91524        0.95265        2.17866
Mg         1.51951        2.10646       -1.98022
C         -0.53197        2.65236        4.28786
C         -1.65424        0.62993        3.87696
O         -0.96316        1.72541        3.29974
C          0.36689        2.07220        5.39454
C         -2.08249       -0.35467        2.80013
H          0.06182        3.42700        3.75823
H         -1.40440        3.17823        4.73342
H         -1.00817        0.05180        4.57009
H         -2.56663        0.98726        4.40461
H         -1.18894       -0.77077        2.28735
H         -2.63673       -1.19425        3.27461
H         -2.74141        0.13932        2.05776
H          1.22903        1.52897        4.95417
H          0.74960        2.89822        6.02989
H         -0.19814        1.39451        6.06880
H         -0.83414        1.39281       -0.59737
C         -1.07194        3.49722       -0.27652
C         -0.17256        2.26853       -0.48992
C         -2.01187        3.75776       -1.45181
H         -1.68891        3.33321        0.63591
H         -0.45403        4.38773       -0.09537
H         -1.42265        3.91202       -2.37572
H         -2.68047        2.88004       -1.58255
C         -2.86473        5.00302       -1.21692
H          0.37716        2.12002        0.45209
H         -3.47596        4.89516       -0.29115
H         -2.22070        5.90275       -1.12145
H         -3.55057        5.14983       -2.07688
C          3.26280       -1.10757        0.91743
C          4.39020       -1.15654        0.12513
C          4.64506        0.13793       -0.26801
C          3.64313        0.91465        0.28537
N          2.83414        0.16323        1.03342
C          3.57157        2.39508        0.24557
N          2.55488        3.09216       -0.60628
C          2.76657        4.62808       -0.45942
H          4.96777       -2.03577       -0.12673
H          2.78516       -1.95362        1.39231
H          5.47297        0.47904       -0.87576
H          3.42968        2.67740        1.30700
H          4.59269        2.67831       -0.04655
C          4.26706        5.05100       -0.66138
C          1.99675        5.55079       -1.44148
C          2.33164        5.09791        0.93794
H          4.65701        4.68550       -1.63564
H          4.37808        6.15800       -0.64393
H          4.93406        4.70990        0.15607
H          0.91710        5.34568       -1.49394
H          2.07749        6.61281       -1.12161
H          2.49447        5.65108       -2.41573
H          1.26605        4.87414        1.12201
H          2.92661        4.65827        1.75795
H          2.47026        6.19720        1.04461
Mg         1.41358        1.78067       -2.08120
C         -1.49289        0.09371       -2.83128
C         -1.87973       -0.56883       -3.99833
C         -0.78539       -0.57425       -4.82300
C          0.21383        0.05424       -4.10215
N         -0.20848        0.53166       -2.92477
C          1.55651        0.36016       -4.54529
N          1.86514        1.68566       -4.00395
C          1.29471        2.83612       -4.73622
H         -2.85802       -0.96875       -4.25247
H         -2.17391        0.28985       -2.01636
H         -0.72098       -0.96643       -5.83639
H          1.69846        0.28603       -5.63733
H          2.22991       -0.36971       -4.04339
C         -0.21868        2.75943       -5.07250
C          1.46811        3.95069       -3.78487
C          2.10929        3.13663       -5.99800
H         -0.83428        2.56903       -4.17029
H         -0.56808        3.73235       -5.47646
H         -0.42793        1.98668       -5.83635
H          2.54503        3.93897       -3.50052
H          1.15723        4.92924       -4.19689
H          0.84542        3.72783       -2.89231
H          3.18332        3.26003       -5.73829
H          2.00833        2.32101       -6.73933
H          1.74856        4.08339       -6.45354
