83
speciation331.ct
Na         2.30914        0.17586        1.02344
Mg         0.27714        1.64791       -0.79768
C          5.17311       -1.49576        1.36700
C          5.41654        0.72001        2.15600
O          4.57533       -0.19087        1.43337
C          5.68425       -2.11799        2.68241
C          6.73508        1.04690        1.41847
H          4.42114       -2.20151        0.97317
H          6.00117       -1.49704        0.61964
H          4.87351        1.65350        2.30644
H          5.61027        0.38639        3.19209
H          6.53174        1.46131        0.41010
H          7.31224        1.79958        1.99690
H          7.39294        0.15569        1.31243
H          4.86326       -2.18601        3.42349
H          6.07340       -3.14091        2.48121
H          6.54065       -1.55769        3.11375
C         -0.56360        3.43570       -3.27479
C          0.05736        4.61778       -3.64657
C          1.16718        4.76998       -2.83696
C          1.19425        3.63976       -2.04132
N          0.10670        2.90608       -2.20596
C          2.34094        3.09772       -1.21947
N          1.93085        2.42155        0.05642
C          2.12131        3.36813        1.19962
H         -0.25078        5.27876       -4.43931
H         -1.44920        3.01835       -3.72274
H          1.89294        5.56661       -2.87898
H          2.78308        2.32529       -1.86524
H          3.15035        3.82724       -1.19583
C          1.08802        4.50629        1.14596
C          1.93935        2.61898        2.51842
C          3.56678        3.95302        1.23170
H          0.05976        4.08309        1.11693
H          1.18396        5.16040        2.03727
H          1.23295        5.13534        0.24518
H          2.63865        1.76449        2.59523
H          2.13649        3.28844        3.38183
H          0.90350        2.29065        2.61944
H          4.30165        3.15937        1.00940
H          3.74422        4.75728        0.49370
H          3.80167        4.42953        2.20308
Na         2.47052       -3.13542        0.38192
C          1.35699       -1.29761        3.73512
C         -0.35654        0.03067        2.78649
O          1.05389       -0.17178        2.90842
C          0.64049       -2.61287        3.37844
C         -1.07246        0.45681        4.07727
H          2.44584       -1.47597        3.65675
H          1.17520       -1.05279        4.80703
H         -0.52595        0.84691        2.07043
H         -0.86593       -0.84962        2.36616
H         -0.65149        1.40179        4.47969
H         -2.15015        0.62523        3.85548
H         -1.02451       -0.33158        4.85840
H          0.79413       -2.84381        2.31118
H          1.04975       -3.44535        3.98631
H         -0.44825       -2.56973        3.60289
C         -2.18625        0.79231        0.06243
C         -2.97929       -0.27261        0.40060
C         -2.22140       -1.41014        0.19017
C         -0.97592       -0.98716       -0.25372
N         -0.97378        0.35786       -0.33493
C          0.17059       -1.92667       -0.56088
N          1.56712       -1.39566       -0.49032
C          2.21406       -1.14209       -1.80723
H         -3.99364       -0.22325        0.78210
H         -2.47013        1.83058        0.10015
H         -2.52829       -2.42921        0.39155
H          0.10054       -2.70892        0.21643
H         -0.06240       -2.47720       -1.48749
C          1.42729       -0.10211       -2.59218
C          3.62650       -0.59267       -1.54957
C          2.35729       -2.40911       -2.67779
H          1.38082        0.77325       -1.97515
H          1.93572        0.17537       -3.53777
H          0.39182       -0.42927       -2.81119
H          4.25417       -1.37244       -1.08868
H          4.12121       -0.29118       -2.49537
H          3.59641        0.29591       -0.88808
H          2.93950       -3.19162       -2.15089
H          1.38322       -2.82987       -2.99185
H          2.89396       -2.14743       -3.61675
