95
speciation1692.ct
Na         0.08660        0.35375        0.01889
Li        -5.83111        0.56667        2.82765
C         -4.64961       -1.78947        3.13239
C         -5.07646       -0.86547        5.31643
O         -5.36670       -0.87041        3.92085
C         -5.03982       -3.22670        3.44143
C         -3.59402       -0.74965        5.69602
H         -4.95269       -1.59623        2.08004
H         -3.55261       -1.61698        3.16211
H         -5.61299       -0.00505        5.77315
H         -5.51905       -1.77339        5.78033
H         -3.16522        0.19808        5.31436
H         -3.50606       -0.76345        6.80432
H         -3.00591       -1.61212        5.31844
H         -6.14533       -3.32867        3.39966
H         -4.58173       -3.90203        2.69086
H         -4.67775       -3.51658        4.44809
H         -8.35484        1.21450        2.17636
C         -8.82928       -0.57233        3.31390
C         -7.90069        0.22091        2.37925
C         -9.05366        0.12241        4.66209
H         -9.81609       -0.68525        2.80961
H         -8.40528       -1.58544        3.48260
H         -8.08625        0.21487        5.19577
H         -9.47365        1.13862        4.49821
C        -10.03388       -0.66535        5.53725
H         -7.84359       -0.33154        1.41934
H        -11.02908       -0.73475        5.04548
H         -9.65418       -1.69195        5.72744
H        -10.16435       -0.15177        6.51453
C         -5.52426        3.16635        1.66830
C         -4.74564        4.08681        1.00727
C         -3.55440        3.45779        0.73816
C         -3.66240        2.17017        1.22136
N         -4.87134        1.99775        1.81820
C         -2.57611        1.13634        1.08943
N         -1.90961        1.13251       -0.24063
C         -2.63356        0.67368       -1.44904
H         -5.01192        5.10035        0.74974
H         -6.52177        3.35392        2.02981
H         -2.70443        3.88809        0.22838
H         -2.91367        0.12876        1.41404
H         -1.79496        1.44521        1.81163
C         -3.68913        1.71102       -1.88675
C         -1.59759        0.56457       -2.58447
C         -3.30293       -0.69671       -1.24793
H         -3.21846        2.70958       -2.01085
H         -4.13810        1.42748       -2.86031
H         -4.52199        1.78803       -1.16458
H         -0.82051       -0.18941       -2.33824
H         -2.07946        0.25655       -3.53668
H         -1.09228        1.54115       -2.74843
H         -2.54557       -1.46709       -0.99775
H         -4.05805       -0.65531       -0.43639
H         -3.82806       -1.00252       -2.17863
Na         0.01323        0.14800       -0.07667
Li         3.00319        1.95913       -1.53776
H          2.62719        3.58562        0.49279
C          1.87621        4.63244       -1.25876
C          2.90846        3.75203       -0.56919
C          0.49281        3.97762       -1.21275
H          1.84122        5.62101       -0.75070
H          2.18599        4.77995       -2.31589
H          0.53490        2.98354       -1.70763
H          0.17975        3.83523       -0.15483
C         -0.54362        4.84439       -1.92207
H          3.90806        4.23384       -0.60589
H         -0.61278        5.84101       -1.43633
H         -0.27160        4.97538       -2.99077
H         -1.53716        4.35777       -1.87021
C          2.75274        0.19842       -3.78250
C          2.21552       -1.02584       -4.10293
C          2.26116       -1.80120       -2.95168
C          2.79087       -0.99624       -1.95885
N          3.09560        0.21017       -2.48259
C          2.89185       -1.38170       -0.51216
N          1.98939       -0.62700        0.38662
C          2.21547       -0.77852        1.84757
H          1.74874       -1.31396       -5.03934
H          2.71071        1.06889       -4.41444
H          1.84343       -2.79598       -2.82249
H          3.94728       -1.18539       -0.23562
H          2.70680       -2.47061       -0.42296
C          3.48737       -0.00473        2.22494
C          1.02121       -0.14841        2.59089
C          2.33773       -2.25506        2.31015
H          3.40316        1.04328        1.86317
H          3.63149        0.00359        3.32357
H          4.39009       -0.46253        1.77469
H          0.07718       -0.68875        2.35450
H          1.17018       -0.19049        3.69229
H          0.89713        0.91504        2.29705
H          1.39358       -2.81634        2.13838
H          3.16648       -2.78452        1.79844
H          2.56072       -2.29518        3.40161
