68
speciation38.ct
Na         1.41190        2.02572        0.20969
Mg         3.38218        0.08335       -1.63630
C          1.24453        4.85521        0.89864
C          2.78219        4.34135       -0.86878
O          2.15815        3.92587        0.33139
C          0.18182        5.41899       -0.05292
C          3.84356        5.40866       -0.60976
H          0.70468        4.31480        1.70486
H          1.79557        5.67601        1.40521
H          3.30856        3.45782       -1.28849
H          2.05886        4.65341       -1.64782
H          4.59579        5.02693        0.11321
H          4.35610        5.66206       -1.56138
H          3.38336        6.33307       -0.20458
H         -0.37165        4.59427       -0.54799
H         -0.53553        6.03605        0.52841
H          0.63485        6.08691       -0.81451
C         -1.68192        1.21072        0.08187
C         -2.36090        0.01193       -0.03865
C         -1.40177       -0.97946       -0.12003
C         -0.18386       -0.33768       -0.03871
N         -0.35553        0.98291        0.07506
C          1.16362       -0.98132       -0.09435
N          2.24500        0.03300       -0.00400
C          3.15138       -0.06900        1.16283
H         -3.43390       -0.12457       -0.06379
H         -2.12906        2.19047        0.17027
H         -1.57405       -2.04283       -0.22181
H          1.21653       -1.49901       -1.06795
H          1.21824       -1.74889        0.70178
C          3.95050       -1.37181        1.12171
C          4.16050        1.08911        1.07413
C          2.37889        0.04051        2.49552
H          4.52437       -1.39881        0.17243
H          4.66927       -1.42752        1.96746
H          3.28954       -2.25839        1.19259
H          3.64649        2.06647        1.11799
H          4.88835        1.04595        1.91346
H          4.72798        1.03620        0.11881
H          1.79500        0.98383        2.53089
H          1.68036       -0.80797        2.64299
H          3.08630        0.03056        3.35318
Na         3.13602       -1.92752       -1.85124
C          4.49540        1.09406       -4.21056
C          5.41046        0.81030       -5.20317
C          6.02099       -0.37427       -4.85168
C          5.45192       -0.77021       -3.65549
N          4.51935        0.13370       -3.26860
C          5.83478       -2.01519       -2.88705
N          4.69269       -2.93710       -2.78087
C          4.91434       -4.22932       -2.07936
H          5.61167        1.40499       -6.08425
H          3.84593        1.95864       -4.17627
H          6.79495       -0.88870       -5.40660
H          6.66788       -2.51386       -3.42245
H          6.17960       -1.69617       -1.88401
C          5.42151       -4.05007       -0.63522
C          3.55293       -4.94854       -2.00753
C          5.90896       -5.11483       -2.84681
H          4.66367       -3.53860       -0.03458
H          5.57524       -5.03639       -0.14722
H          6.38337       -3.50101       -0.58660
H          3.14544       -5.12562       -3.02482
H          3.64320       -5.92578       -1.48469
H          2.81629       -4.33147       -1.44596
H          5.55848       -5.28205       -3.88619
H          6.91938       -4.65915       -2.86953
H          6.00608       -6.10209       -2.34301
