110
speciation2472.ct
Na         0.99324        1.67946        0.41894
Mg         3.38218        0.08335       -1.63630
C          0.47570        3.61698        2.97358
C          0.17662        1.39132        3.78328
O          0.53014        2.23348        2.65165
C          1.42934        4.02306        4.11137
C         -1.16367        1.69164        4.48805
H          0.78138        4.16184        2.07969
H         -0.56720        3.95184        3.17874
H          0.11518        0.34012        3.43819
H          0.99663        1.42113        4.52802
H         -2.02227        1.53313        3.80569
H         -1.27713        1.00040        5.35399
H         -1.21119        2.71429        4.91630
H          2.46366        3.68842        3.88609
H          1.42389        5.12597        4.23053
H          1.11774        3.59682        5.08998
H          4.12607        0.84831       -4.04930
C          4.67402       -1.26121       -3.90342
C          4.54792        0.13496       -3.30961
C          3.30787       -1.81068       -4.31972
H          5.34723       -1.21795       -4.78735
H          5.12626       -1.92984       -3.13914
H          2.63455       -1.85061       -3.43562
H          2.85432       -1.14349       -5.08487
C          3.44279       -3.21433       -4.90459
H          5.55261        0.49312       -3.00071
H          4.10374       -3.19868       -5.79759
H          3.86987       -3.90806       -4.14898
H          2.44383       -3.59146       -5.20891
C         -1.93701        0.45895       -0.14816
C         -2.33830       -0.84546       -0.37035
C         -1.19124       -1.61416       -0.39474
C         -0.13846       -0.74426       -0.19811
N         -0.59651        0.50528       -0.02475
C          1.32258       -1.13323       -0.14337
N          2.24500        0.03300       -0.00400
C          3.34731       -0.20125        0.97981
H         -3.35447       -1.20484       -0.47603
H         -2.59097        1.31104       -0.04061
H         -1.13197       -2.68638       -0.52792
H          1.58500       -1.67030       -1.07557
H          1.40454       -1.85977        0.68455
C          4.19309       -1.44346        0.60488
C          4.27145        1.02869        0.97798
C          2.81798       -0.37932        2.41464
H          4.64524       -1.31864       -0.40550
H          5.01709       -1.58485        1.33792
H          3.60028       -2.37339        0.59980
H          3.71744        1.93912        1.29185
H          5.11519        0.87812        1.68970
H          4.69978        1.19885       -0.03131
H          2.21559        0.49439        2.65879
H          2.21668       -1.29798        2.56394
H          3.64917       -0.42225        3.15072
Na         4.58051        6.35004       -2.36502
Mg         1.22422        6.91589       -1.29904
C          5.63324        6.32913       -5.37574
C          7.19854        5.53077       -3.80886
O          6.15459        6.45444       -4.06613
C          4.49728        7.32268       -5.57297
C          6.77081        4.05747       -3.85473
H          6.42564        6.57153       -6.11885
H          5.21307        5.32127       -5.57056
H          8.06570        5.71623       -4.48030
H          7.55924        5.73956       -2.77947
H          6.53079        3.73451       -4.88821
H          7.61186        3.42152       -3.50699
H          5.89358        3.88744       -3.19595
H          4.84685        8.35703       -5.37383
H          4.12956        7.26234       -6.62006
H          3.65627        7.08198       -4.88885
H         -1.01409        8.21315       -1.17158
C         -1.55160        6.52206       -2.40638
C         -0.56800        7.60529       -1.98772
C         -1.90571        5.62815       -1.21262
H         -2.47494        7.01400       -2.78606
H         -1.10433        5.91330       -3.21985
H         -0.99062        5.13244       -0.82997
H         -2.34229        6.25188       -0.39681
C         -2.93133        4.57000       -1.60681
H         -0.34558        8.27889       -2.84174
H         -3.86612        5.05229       -1.96661
H         -2.52286        3.92066       -2.40948
H         -3.17507        3.94051       -0.72530
C          1.58307        2.41007       -2.68257
C          2.09351        3.34018       -3.56958
C          2.47831        4.41788       -2.82063
C          2.21127        4.08758       -1.49781
N          1.63193        2.87597       -1.40799
C          2.53114        4.88524       -0.28651
N          2.97251        6.24339       -0.62724
C          3.17697        7.14145        0.50295
H          2.19208        3.24120       -4.64822
H          1.21327        1.43374       -2.97034
H          2.92503        5.31529       -3.21646
H          1.58402        4.94490        0.26076
H          3.29730        4.32531        0.28677
C          4.35964        6.62697        1.35381
C          3.47310        8.52057       -0.07777
C          1.89417        7.26253        1.38002
H          5.24546        6.45971        0.69859
H          4.62976        7.33776        2.16412
H          4.11163        5.66080        1.83767
H          2.57802        8.89492       -0.62372
H          3.72225        9.24645        0.72482
H          4.31742        8.46733       -0.79581
H          1.00573        7.43962        0.73524
H          1.70036        6.34895        1.97688
H          1.96372        8.11190        2.09161
