110
speciation2084.ct
Na         4.70136        2.95141       -0.36937
Mg         3.03527        5.31669        6.08283
C          5.95405        5.13279       -1.93613
C          4.01992        4.62531       -3.14447
O          4.93150        4.17365       -2.14253
C          5.45871        6.38565       -1.20389
C          3.07421        3.52116       -3.58103
H          6.73585        4.65179       -1.31521
H          6.46514        5.40567       -2.88975
H          3.40828        5.48482       -2.79803
H          4.58026        4.91650       -4.06930
H          2.41396        3.23391       -2.73851
H          2.44219        3.89496       -4.41835
H          3.64591        2.63970       -3.93812
H          4.96529        6.09929       -0.25261
H          6.31832        7.05200       -0.98180
H          4.74517        6.96598       -1.82550
H          2.36795        7.85023        5.47544
C          3.48175        8.51249        7.08671
C          2.59081        7.43534        6.45218
C          3.82183        8.21742        8.54296
H          4.41001        8.66410        6.49635
H          2.91110        9.46743        7.05607
H          4.24462        9.12561        9.02091
H          2.87977        7.95106        9.07449
C          4.85645        7.11685        8.65128
H          1.63563        7.42730        7.01054
H          4.54779        6.24730        8.06176
H          5.82626        7.47140        8.24860
H          4.99108        6.82390        9.71021
C          2.68318       -0.97820        4.46127
C          3.37041       -2.06939        3.97935
C          3.90052       -1.69748        2.75861
C          3.50914       -0.38756        2.53560
N          2.77201        0.03890        3.58907
C          3.90070        0.43943        1.31135
N          4.46796        1.79093        1.56105
C          5.75243        1.91168        2.28440
H          3.50441       -3.01528        4.48701
H          2.19976       -0.90581        5.42717
H          4.52689       -2.30810        2.12266
H          2.96315        0.59560        0.74182
H          4.57575       -0.14185        0.64951
C          6.87520        1.09005        1.62053
C          6.16170        3.39330        2.22569
C          5.61377        1.50825        3.76845
H          7.01770        1.40640        0.56499
H          7.83603        1.24375        2.16121
H          6.65132        0.00489        1.64520
H          5.36670        4.02884        2.65744
H          7.10972        3.56565        2.77900
H          6.32297        3.72391        1.17820
H          4.75676        2.03588        4.23347
H          5.46787        0.42161        3.89482
H          6.53758        1.75871        4.33350
Na         2.15732        2.26458        4.12331
Mg        -1.66971        5.75453        2.53837
C          4.02348        3.25229        8.03086
C          2.15793        4.48583        8.84426
O          3.21041        4.41087        7.88393
C          3.35693        1.94962        7.59854
C          2.56262        4.65954       10.30521
H          4.93719        3.38865        7.42317
H          4.41604        3.16757        9.06581
H          1.55997        5.38959        8.59690
H          1.51871        3.58380        8.81952
H          3.16283        5.57312       10.45703
H          1.62660        4.75154       10.90149
H          3.09431        3.76799       10.69132
H          3.07858        2.00344        6.52801
H          4.07676        1.11539        7.74256
H          2.46481        1.71899        8.21289
H          5.11827        4.05781        5.05113
C          6.33477        5.60113        5.92152
C          5.04851        5.14961        5.19434
C          7.62360        5.20093        5.16691
H          6.31145        6.70254        6.04523
H          6.37650        5.12517        6.92301
H          7.67462        4.09426        5.06667
H          7.63038        5.65120        4.15078
C          8.88345        5.66296        5.90733
H          5.00341        5.66019        4.21121
H          8.89733        6.76919        6.00040
H          8.93159        5.21119        6.92131
H          9.79287        5.35013        5.34757
C         -0.10243        8.18670        2.76956
C          1.15979        8.68999        2.98445
C          1.99783        7.60309        3.13232
C          1.20202        6.48254        3.07473
N         -0.06517        6.84745        2.78757
C          1.67473        5.05561        3.28114
N          1.54264        4.49026        4.65756
C          0.10982        4.32885        5.14587
H          1.43240        9.73464        3.04500
H         -1.00588        8.76836        2.62900
H          3.06576        7.63161        3.33318
H          2.75059        5.02175        3.02060
H          1.20233        4.39612        2.51705
C         -0.75384        3.52218        4.14535
C          0.09880        3.51475        6.42781
C         -0.63040        5.65259        5.53589
H         -0.32224        2.51605        3.98115
H         -1.78777        3.38351        4.55696
H         -0.87300        4.02847        3.17796
H          0.48540        4.17421        7.17879
H         -0.93701        3.28247        6.77037
H          0.67564        2.57524        6.35387
H         -0.04518        6.24974        6.25200
H         -0.96143        6.29808        4.73481
H         -1.60101        5.41740        6.03413
