96
speciation1083.ct
Na         1.19631        0.36083        1.69525
Mg         6.41656        6.65611       -3.05632
C         -1.57664        1.14972        2.06442
C         -0.53438        0.71721        4.11987
O         -0.60167        0.37623        2.74327
C         -1.27174        2.65192        2.03752
C          0.47319       -0.16858        4.83550
H         -1.59922        0.78759        1.01582
H         -2.59331        0.96139        2.47635
H         -0.20819        1.76574        4.27968
H         -1.52414        0.54385        4.60091
H          1.49200        0.01257        4.43314
H          0.47165        0.07642        5.92049
H          0.20707       -1.23830        4.70974
H         -0.23779        2.81138        1.68045
H         -1.98696        3.16653        1.36225
H         -1.38253        3.11397        3.03974
H          7.28177        8.53323       -1.08604
C          5.20616        9.07582       -0.93596
C          6.41901        8.62444       -1.78400
C          4.86522        8.02323        0.11608
H          5.41034       10.04176       -0.41305
H          4.34275        9.23239       -1.61586
H          4.80148        7.06799       -0.41000
H          5.67709        7.94267        0.87087
C          3.53092        8.28868        0.81945
H          6.66500        9.47195       -2.46283
H          3.57352        9.21585        1.42886
H          2.70932        8.37807        0.07584
H          3.29200        7.43395        1.48933
C          3.96394       -1.00174        1.07612
C          5.25429       -0.77299        0.64594
C          5.28784        0.52717        0.20826
C          4.00343        1.02597        0.32988
N          3.20825        0.10848        0.92088
C          3.60377        2.43980        0.04160
N          2.81762        2.64603       -1.21631
C          2.33048        4.05222       -1.32964
H          6.09431       -1.45334        0.69168
H          3.61752       -1.91824        1.53342
H          6.16725        1.05183       -0.12569
H          3.04395        2.75022        0.94316
H          4.54353        3.02127       -0.00685
C          3.50193        5.04437       -1.33010
C          1.58235        4.19882       -2.65703
C          1.35406        4.44334       -0.19208
H          4.23613        4.77474       -2.10915
H          3.13170        6.07469       -1.51934
H          4.01310        5.05443       -0.34571
H          0.70475        3.52129       -2.68561
H          1.22356        5.24587       -2.78682
H          2.25064        3.94983       -3.50164
H          0.48724        3.75643       -0.19025
H          1.82503        4.44945        0.81159
H          0.97794        5.47864       -0.33968
Mg         3.91757        2.31723       -2.84176
C          9.37115        6.86280       -3.55977
C          8.62607        5.06325       -2.22653
O          8.30721        6.32191       -2.78071
C          9.82627        5.99095       -4.74512
C          7.50076        4.63239       -1.30557
H          9.03372        7.83958       -3.96230
H         10.24503        7.08990       -2.90615
H          8.73279        4.28654       -3.01323
H          9.55221        5.13093       -1.61029
H          6.55724        4.55531       -1.87793
H          7.73592        3.64054       -0.86557
H          7.36611        5.37727       -0.49443
H          8.96952        5.75218       -5.40668
H         10.59415        6.53826       -5.33482
H         10.30635        5.05100       -4.40077
C          3.98978        6.41617       -4.83382
C          3.20368        5.65743       -5.68514
C          3.77550        4.41339       -5.72568
C          4.88524        4.44954       -4.89515
N          5.02901        5.70047       -4.34621
C          5.79019        3.25811       -4.70825
N          5.01753        1.98843       -4.46721
C          5.80132        0.80159       -4.14835
H          2.31213        5.96589       -6.22327
H          3.80654        7.46357       -4.62055
H          3.42670        3.55830       -6.29372
H          6.48001        3.49610       -3.88032
H          6.36787        3.14220       -5.64526
C          6.70723        1.06688       -2.92347
C          4.80077       -0.29755       -3.77827
C          6.65847        0.37660       -5.35293
H          6.07365        1.52915       -2.14799
H          7.16912        0.13067       -2.54547
H          7.53317        1.77471       -3.13923
H          4.11873       -0.49020       -4.63254
H          5.31652       -1.24026       -3.50274
H          4.18186        0.03152       -2.91402
H          6.00645        0.20954       -6.23605
H          7.39763        1.16479       -5.61600
H          7.22692       -0.55025       -5.13616
