83
speciation289.ct
Na         1.20847        1.85579        0.36465
Mg         3.38218        0.08335       -1.63630
C          1.54737        2.25581        3.61099
C          0.16085        3.77559        2.47370
O          1.27677        2.90320        2.35951
C          0.40599        1.37172        4.17265
C          0.38897        4.94244        3.45173
H          2.48718        1.70062        3.49726
H          1.88972        2.96582        4.38780
H         -0.02618        4.22367        1.48222
H         -0.76403        3.21684        2.74085
H          1.26575        5.54048        3.12840
H         -0.51172        5.58810        3.47585
H          0.54630        4.60289        4.49590
H         -0.03053        0.69442        3.41017
H          0.79540        0.75438        5.01129
H         -0.42037        1.98950        4.57497
C         -1.85287        0.93710        0.06006
C         -2.41222       -0.30259       -0.20773
C         -1.36285       -1.19115       -0.33521
C         -0.20829       -0.45595       -0.15327
N         -0.51451        0.82693        0.10808
C          1.20143       -1.01100       -0.21701
N          2.24500        0.03300       -0.00400
C          3.23674       -0.30063        1.04029
H         -3.46452       -0.53126       -0.30571
H         -2.40338        1.85637        0.19818
H         -1.43251       -2.25105       -0.54195
H          1.36856       -1.47883       -1.20640
H          1.24418       -1.82683        0.52848
C          4.01215       -1.58361        0.70079
C          4.17655        0.91801        1.12617
C          2.56976       -0.56168        2.38964
H          4.33362       -1.56828       -0.34513
H          4.86509       -1.71620        1.40243
H          3.37829       -2.48939        0.78834
H          3.60588        1.84076        1.36279
H          4.96104        0.77905        1.89865
H          4.67741        1.09531        0.15528
H          1.72574        0.10766        2.42737
H          2.10902       -1.56389        2.48291
H          3.28724       -0.45777        3.23354
Na         3.85970        1.66960       -4.60066
C          2.96748        3.00997       -1.80609
C          0.79842        3.89383       -1.98147
O          1.61195        2.89395       -1.41322
C          3.68591        4.19797       -1.18095
C         -0.65043        3.57117       -1.68539
H          3.48173        2.09501       -1.47561
H          3.07351        3.01120       -2.91310
H          1.03615        4.88788       -1.55375
H          0.90685        3.90175       -3.09264
H         -0.79953        3.55024       -0.58886
H         -1.30979        4.34664       -2.12709
H         -0.91116        2.57958       -2.11455
H          3.54869        4.18395       -0.08045
H          4.77016        4.13199       -1.41504
H          3.30219        5.14792       -1.60376
C          7.35392       -1.41245       -0.12292
C          8.26740       -1.65436       -1.11665
C          7.85138       -0.95084       -2.23966
C          6.70929       -0.31345       -1.96138
N          6.36836       -0.53921       -0.61400
C          5.90313        0.58209       -2.90239
N          4.51935        0.13370       -3.26860
C          4.42508       -1.11473       -4.08847
H          9.13167       -2.30584       -1.03031
H          7.37853       -1.82906        0.87379
H          8.35535       -0.93903       -3.19971
H          6.49408        0.76548       -3.81835
H          5.82214        1.56944       -2.40377
C          4.82072       -2.38468       -3.29972
C          2.95812       -1.28754       -4.51627
C          5.28698       -1.02577       -5.37148
H          4.20599       -2.48817       -2.38500
H          4.65210       -3.29139       -3.92274
H          5.88591       -2.41699       -3.03592
H          2.61462       -0.41778       -5.11332
H          2.84003       -2.20133       -5.14210
H          2.30103       -1.39058       -3.62715
H          4.98080       -0.15642       -5.99147
H          6.36882       -0.94155       -5.14356
H          5.17192       -1.94643       -5.98365
