83
speciation334.ct
Na         1.36123        1.85544       -0.86993
Mg         4.02656        1.01788       -2.77612
C          1.64404        3.87978       -3.75905
C         -0.67690        3.54020       -3.07072
O          0.71362        3.12365       -2.96913
C          1.34973        4.12363       -5.27529
C         -1.44884        3.53650       -4.41226
H          1.89707        4.83868       -3.27576
H          2.56395        3.27220       -3.77267
H         -1.26569        2.82395       -2.47298
H         -0.83793        4.54796       -2.68006
H         -1.20334        4.39829       -5.05048
H         -2.52607        3.72367       -4.18954
H         -1.38515        2.58791       -4.97977
H          0.70573        5.00650       -5.44796
H          2.29071        4.39184       -5.80256
H          0.92509        3.25185       -5.81589
C          4.24708        1.24914       -6.04997
C          3.12534        1.14992       -6.86901
C          1.97346        0.95586       -6.07843
C          2.31336        0.90393       -4.77723
N          3.91319        1.12660       -4.75991
C          0.87047        0.62160       -3.25215
N         -0.16739        0.86505       -1.74538
C         -1.47955        0.85604       -0.48462
H          3.14444        1.20217       -7.94842
H          5.26787        1.40204       -6.39318
H          0.97433        0.81702       -6.48128
H          0.97502       -0.48367       -3.21764
H          0.03243        0.72514       -3.97107
C         -2.60347       -0.26112       -0.63299
C         -1.25902        0.56609        1.14360
C         -2.46550        2.14603       -0.11278
H         -2.23363       -1.30067       -0.56825
H         -3.32311       -0.29651        0.26377
H         -3.34003       -0.02106       -1.40604
H         -0.75484        1.28866        1.81303
H         -2.16608        0.70923        1.82640
H         -1.47754       -0.45931        1.53786
H         -2.39361        2.73519        0.85256
H         -3.01617        2.71992       -0.85133
H         -3.35877        1.80131        0.50671
Na         0.43506       -0.84759       -0.71341
C          0.01161        3.97176        1.15874
C          2.22855        4.36135        0.93183
O          1.22357        3.40067        0.79016
C         -0.49772        5.06184        0.22995
C          3.49500        3.63452        0.78528
H         -0.57042        3.13964        1.04444
H         -0.06487        4.23751        2.23523
H          2.16144        5.11667        0.11864
H          2.21825        4.83865        1.94049
H          3.38457        3.18594       -0.21590
H          4.35856        4.32057        0.81702
H          3.57378        2.85956        1.58018
H         -0.31633        4.70701       -0.77408
H         -1.58452        5.23645        0.38270
H          0.04993        6.01389        0.36482
C          5.20197        1.65494       -0.41776
C          5.93111        1.02069        0.54857
C          5.37212       -0.22919        0.65872
C          4.27468       -0.23463       -0.19708
N          4.13993        0.90916       -0.79233
C          3.23718       -1.16641       -0.47638
N          2.15114       -0.55529        0.27929
C          2.17233       -1.03773        1.73643
H          6.81836        1.39756        1.03976
H          5.48713        2.58601       -0.89329
H          5.74608       -1.01526        1.29566
H          3.47760       -2.20505       -0.22490
H          3.00163       -1.14322       -1.56561
C          3.24830       -0.38951        2.62837
C          0.93762       -0.58430        2.33501
C          2.17228       -2.59672        1.93728
H          3.36525        0.68656        2.37581
H          2.98501       -0.44559        3.70745
H          4.16669       -0.96947        2.60720
H          0.25855       -1.17093        1.72215
H          0.77474       -0.85906        3.39609
H          0.99077        0.51596        2.23998
H          1.27392       -3.07740        1.48303
H          3.06490       -3.11831        1.55947
H          2.14228       -2.82218        3.02618
