95
speciation1440.ct
Na         0.28470        1.41758       -0.18098
Mg        -5.89792        1.37702        1.32456
C          0.79375        3.25823       -2.47411
C          1.53580        4.16447       -0.38781
O          0.63285        3.30049       -1.05526
C          2.23528        3.24237       -2.99224
C          1.25256        5.62872       -0.73151
H          0.34318        2.31838       -2.82568
H          0.21541        4.07193       -2.96043
H          1.37828        4.04020        0.70236
H          2.59885        3.89801       -0.57099
H          0.20061        5.87355       -0.47779
H          1.93580        6.28957       -0.16056
H          1.41084        5.82677       -1.81242
H          2.79248        2.48881       -2.42185
H          2.24855        2.99561       -4.07681
H          2.74858        4.21259       -2.85795
H         -7.03045       -0.23346       -0.39387
C         -8.45172        1.39510       -0.16692
C         -7.46021        0.39112        0.41831
C         -7.77290        2.34040       -1.16651
H         -9.26910        0.83943       -0.67703
H         -8.88638        1.98977        0.66476
H         -6.95357        2.89611       -0.66036
H         -7.34073        1.75428       -2.00682
C         -8.77479        3.34768       -1.73364
H         -7.97824       -0.26913        1.14400
H         -9.59778        2.82099       -2.26220
H         -9.20526        3.96639       -0.91773
H         -8.26518        4.02039       -2.45529
C         -4.45546        3.86837        1.65385
C         -3.20328        4.43994        1.70288
C         -2.29318        3.40221        1.66520
C         -3.03257        2.23743        1.59346
N         -4.35173        2.53026        1.59471
C         -2.47716        0.83997        1.50033
N         -1.74421        0.55724        0.22233
C         -2.61013        0.51111       -0.99336
H         -2.98614        5.49968        1.73806
H         -5.39819        4.40194        1.63849
H         -1.21552        3.49105        1.66828
H         -3.27001        0.09191        1.67609
H         -1.84991        0.73639        2.38802
C         -3.13044        1.90574       -1.40229
C         -1.75612        0.01291       -2.15793
C         -3.80447       -0.46143       -0.82235
H         -2.29122        2.63077       -1.46239
H         -3.63655        1.85662       -2.38791
H         -3.90254        2.29551       -0.73032
H         -1.33954       -0.98012       -1.95723
H         -2.35563       -0.05480       -3.08961
H         -0.91473        0.69686       -2.32748
H         -3.45550       -1.48544       -0.59019
H         -4.50276       -0.15080       -0.02025
H         -4.41110       -0.50354       -1.75103
Na         5.86280        0.77507       -1.19409
Mg        -0.30720       -0.93800       -0.00080
H         -1.92536       -3.04166       -0.78564
C         -0.47830       -4.27468        0.18529
C         -0.83322       -3.01780       -0.60325
C         -1.14338       -4.28134        1.56244
H         -0.81958       -5.17004       -0.38482
H          0.62437       -4.33916        0.27721
H         -0.85010       -3.37435        2.12713
H         -2.25022       -4.27931        1.44872
C         -0.72038       -5.51246        2.35903
H         -0.34968       -3.11320       -1.60004
H         -1.04230       -6.44134        1.84125
H          0.38478       -5.52779        2.47932
H         -1.18555       -5.48327        3.36602
C          3.84102        0.50788       -3.52279
C          2.56333        0.09562       -3.86589
C          1.97370       -0.36855       -2.70488
C          2.91257       -0.20657       -1.69869
N          4.04014        0.32738       -2.20603
C          2.79657       -0.65845       -0.27679
N          1.58148       -0.28555        0.50017
C          1.71926       -0.63219        1.95184
H          2.12628        0.12580       -4.85794
H          4.58021        0.90675       -4.20675
H          0.98889       -0.78216       -2.61290
H          3.70873       -0.26134        0.21530
H          2.86349       -1.75675       -0.32388
C          2.77070        0.23802        2.68092
C          0.38848       -0.36816        2.63683
C          2.05571       -2.12431        2.15793
H          2.52419        1.31713        2.58832
H          2.78523       -0.01768        3.76598
H          3.79955        0.07029        2.31355
H         -0.41481       -0.96046        2.15087
H          0.41343       -0.65474        3.71271
H          0.19648        0.72193        2.57989
H          1.29622       -2.74747        1.66957
H          3.05061       -2.39442        1.75101
H          2.07611       -2.38427        3.23822
