110
speciation1879.ct
Na         0.83666        0.39751       -0.17115
Mg         0.48260       -1.86186        2.98250
C         -0.96544        1.77474       -2.94937
C          0.54106        0.00684       -3.40669
O          0.10169        0.94625       -2.41673
C         -2.30815        1.10717       -3.28576
C          0.99985        0.57973       -4.77642
H         -1.13332        2.63406       -2.31285
H         -0.66153        2.32498       -3.85046
H          1.40595       -0.53576       -2.98610
H         -0.21449       -0.78612       -3.59250
H          2.05681        0.31813       -4.97381
H          0.38541        0.12464       -5.58793
H          0.94869        1.67629       -4.89134
H         -2.83327        0.76600       -2.37957
H         -2.99237        1.84685       -3.75429
H         -2.17739        0.29349       -4.02797
H          3.16490       -1.78749        3.07158
C          3.00289       -1.40907        5.15397
C          2.42955       -1.30294        3.73876
C          3.24488       -2.85993        5.59181
H          3.98518       -0.88429        5.15685
H          2.32965       -0.89280        5.86789
H          2.28694       -3.40840        5.62153
H          3.92480       -3.37173        4.87396
C          3.88049       -2.90897        6.98089
H          2.40766       -0.22962        3.46946
H          4.88142       -2.42551        6.96697
H          3.23527       -2.38578        7.71804
H          4.00386       -3.96460        7.30331
C         -3.91494       -2.44620       -1.46491
C         -2.97856       -1.82063       -2.24867
C         -1.99557       -1.38536       -1.38964
C         -2.32746       -1.80864       -0.13198
N         -3.53131       -2.42454       -0.17225
C         -1.49432       -1.59316        1.10805
N         -0.01638       -1.70012        0.94635
C          0.51381       -3.02061        0.44264
H         -3.01669       -1.69216       -3.32319
H         -4.84161       -2.87379       -1.82196
H         -1.10119       -0.86602       -1.61953
H         -1.86560       -2.26537        1.90549
H         -1.69981       -0.57801        1.47805
C          0.26886       -3.25057       -1.05862
C          2.02446       -3.01822        0.67286
C         -0.03380       -4.23984        1.22650
H          0.59811       -2.38306       -1.65796
H          0.80893       -4.14661       -1.42672
H         -0.78101       -3.50823       -1.26460
H          2.28146       -3.20114        1.72574
H          2.54269       -3.79956        0.06921
H          2.40296       -2.01660        0.47932
H          0.31034       -4.21816        2.28228
H         -1.13705       -4.29969        1.21404
H          0.35730       -5.18403        0.78092
Na         3.89494       -0.19857        1.62502
Mg        -4.52345       -3.16717        1.31468
C          0.66383        2.31938        2.56378
C         -1.36968        2.26455        1.47315
O          0.03181        2.02268        1.31345
C          0.15772        1.51180        3.77598
C         -2.07254        2.16749        0.16486
H          1.74181        2.13385        2.45958
H          0.57002        3.40921        2.79583
H         -1.85714        1.53571        2.15105
H         -1.56178        3.30531        1.83954
H         -1.90632        1.15750       -0.25851
H         -3.16140        2.35118        0.27560
H         -1.64773        2.97865       -0.43160
H          0.20001        0.43141        3.54789
H          0.78237        1.73257        4.66772
H         -0.88136        1.78369        4.06337
H         -1.36593       -3.46480        4.27579
C         -0.67012       -2.35821        5.98611
C         -0.39903       -3.05938        4.64336
C         -1.67941       -1.21921        5.81019
H         -1.08422       -3.09175        6.71714
H          0.28074       -1.96503        6.39889
H         -1.28730       -0.50472        5.06481
H         -2.64479       -1.62749        5.43804
C         -1.93449       -0.46773        7.11649
H          0.25129       -3.94022        4.82937
H         -2.37544       -1.14221        7.88116
H         -0.98782       -0.03893        7.50865
H         -2.64565        0.36558        6.92916
C          7.31055       -1.91646       -1.62668
C          7.05130       -2.26123       -0.31777
C          5.73137       -1.90424       -0.03101
C          5.20447       -1.33456       -1.13916
N          6.16693       -1.32619       -2.19213
C          3.79822       -0.77360       -1.32145
N          3.37358        0.31346       -0.37011
C          4.17714        1.58430       -0.56217
H          7.77550       -2.72846        0.34680
H          8.24536       -2.06277       -2.15081
H          5.25597       -2.04885        0.91579
H          3.11320       -1.62341       -1.32336
H          3.69153       -0.44384       -2.36780
C          4.16159        2.07780       -2.02800
C          3.58722        2.69822        0.31409
C          5.66395        1.45370       -0.09108
H          3.11733        2.22244       -2.37305
H          4.70808        3.04092       -2.11984
H          4.68796        1.38321       -2.71386
H          3.64983        2.42024        1.38551
H          4.17996        3.63551        0.19183
H          2.53798        2.91724        0.03670
H          5.72888        1.17822        0.98411
H          6.28456        0.75498       -0.66668
H          6.19940        2.41995       -0.21657
