95
speciation1193.ct
Na        -0.21719       -2.72944       -0.45185
Mg         2.21496        1.56936        4.44083
C         -3.00238       -1.97563       -2.03021
C         -2.46972       -4.25233       -1.55718
O         -1.98676       -2.96834       -1.93305
C         -3.95868       -1.86103       -0.83552
C         -3.34435       -4.92416       -2.61815
H         -2.49413       -0.99773       -2.15551
H         -3.58383       -2.12825       -2.96609
H         -1.58594       -4.90874       -1.41145
H         -2.97650       -4.22976       -0.57070
H         -2.77379       -5.06079       -3.55992
H         -3.65902       -5.92313       -2.24505
H         -4.26305       -4.33745       -2.81984
H         -3.38720       -1.69546        0.09992
H         -4.64486       -1.00379       -1.00125
H         -4.59860       -2.76321       -0.73746
H          4.65507        2.57546        4.89434
C          3.86941        4.56284        4.58768
C          3.84078        3.04893        4.30717
C          3.44868        4.88456        6.01315
H          4.90182        4.93912        4.40260
H          3.18030        5.08221        3.88709
H          2.38880        4.61055        6.08138
H          4.07563        4.31763        6.73884
C          3.52309        6.36856        6.35061
H          4.09440        2.94358        3.22914
H          4.57223        6.72985        6.33749
H          2.91328        6.95709        5.63363
H          3.10773        6.52099        7.37117
C          4.41969       -0.29787        3.98755
C          5.07676       -1.28182        3.27078
C          4.23725       -1.64424        2.24295
C          3.06326       -0.91429        2.40750
N          3.19853       -0.03131        3.44902
C          1.86117       -1.08146        1.50923
N          1.59052       -2.48540        1.06128
C          1.23760       -3.50546        2.10967
H          6.05665       -1.69396        3.47871
H          4.84255        0.20444        4.84688
H          4.45009       -2.40066        1.51604
H          2.08834       -0.51923        0.58811
H          0.96418       -0.61696        1.97933
C          0.01033       -3.07683        2.93927
C          0.87920       -4.82122        1.39230
C          2.39765       -3.84342        3.07854
H         -0.87355       -2.91790        2.28879
H         -0.23907       -3.85729        3.69369
H          0.20051       -2.14367        3.49207
H          1.72899       -5.17511        0.77047
H          0.63602       -5.61899        2.13070
H         -0.00918       -4.69299        0.74209
H          3.29991       -4.17484        2.52024
H          2.64118       -3.00746        3.75874
H          2.11564       -4.67860        3.75637
Na         3.62868        0.72655        7.05951
Mg         3.12909       -3.12954        0.04915
H         -0.24433        2.08128        3.37789
C          0.72563        3.30194        1.90057
C          0.69016        2.67729        3.29750
C          0.74178        2.24216        0.81359
H         -0.18571        3.93209        1.77196
H          1.61508        3.96223        1.81491
H          1.64513        1.62478        0.95156
H         -0.17111        1.60895        0.89447
C          0.78747        2.87513       -0.57362
H          0.65394        3.57352        3.94838
H         -0.10550        3.51563       -0.74245
H          1.70427        3.49262       -0.68067
H          0.80324        2.07553       -1.34272
C         -2.33342        2.91051        8.15085
C         -2.27014        3.19164        6.80994
C         -0.96845        2.97454        6.41672
C         -0.24648        2.56375        7.46514
N         -1.05543        2.52229        8.61769
C          1.22032        2.18123        7.44469
N          1.59432        1.08388        6.49873
C          0.93998       -0.23006        6.81651
H         -3.08851        3.50646        6.17454
H         -3.23045        2.96751        8.75672
H         -0.62566        3.09919        5.43258
H          1.52588        1.92382        8.47656
H          1.82565        3.05023        7.22074
C         -0.58589       -0.24888        6.54970
C          1.56850       -1.28657        5.91316
C          1.19048       -0.66992        8.28717
H         -0.81860        0.11773        5.52900
H         -0.98832       -1.27806        6.66270
H         -1.16021        0.32541        7.29456
H          2.65568       -1.38702        6.10782
H          1.09325       -2.28034        6.07524
H          1.41164       -0.98806        4.86552
H          2.27806       -0.69935        8.51219
H          0.69702        0.00181        9.02003
H          0.77329       -1.68285        8.47447
