110
speciation2312.ct
Na         6.65967        1.09275        2.20753
Mg         2.54017        4.69189       -0.94388
C          8.64773       -0.45228        3.82330
C          6.62335       -1.62000        3.94635
O          7.24526       -0.38213        3.62743
C          9.34805       -1.26909        2.73721
C          5.11022       -1.48763        3.98097
H          9.04343        0.58404        3.80534
H          8.90359       -0.84006        4.83784
H          6.88231       -2.41653        3.21757
H          6.91907       -1.93500        4.97494
H          4.71650       -1.30952        2.95967
H          4.67590       -2.43627        4.36900
H          4.80725       -0.65969        4.65484
H          9.08718       -0.86315        1.73864
H         10.44729       -1.21852        2.88102
H          9.05559       -2.33805        2.78821
H          3.86068        7.05898       -1.63406
C          2.29252        7.27583       -3.07831
C          3.23059        6.38552       -2.25399
C          1.38283        6.45048       -3.98469
H          1.67263        7.89901       -2.40023
H          2.90641        7.95718       -3.71054
H          0.75133        7.12591       -4.60146
H          1.99766        5.82440       -4.67074
C          0.47607        5.57512       -3.13668
H          3.90428        5.85277       -2.96159
H          1.10172        4.95570       -2.47707
H         -0.15973        6.19504       -2.47561
H         -0.16016        4.93678       -3.78389
C          7.18064        3.99690        1.01375
C          6.68287        5.02629        0.24446
C          5.49271        4.58165       -0.27523
C          5.30459        3.30496        0.19526
N          6.32233        2.95310        1.02111
C          4.14912        2.40309       -0.11074
N          3.34748        2.74886       -1.33250
C          2.17644        1.81688       -1.47005
H          7.13951        5.99289        0.06740
H          8.12029        4.02323        1.54837
H          4.84425        5.12140       -0.91944
H          4.58285        1.39230       -0.20618
H          3.53476        2.42723        0.80898
C          1.13736        2.13659       -0.37206
C          1.53134        2.00978       -2.85055
C          2.56655        0.30187       -1.41405
H          0.95815        3.22235       -0.35611
H          0.17056        1.62107       -0.52589
H          1.49915        1.83982        0.63561
H          2.26255        1.74831       -3.62777
H          0.65570        1.33373       -2.97383
H          1.16003        3.01036       -3.04223
H          3.62608        0.13122       -1.67353
H          2.34328       -0.14911       -0.42434
H          2.00045       -0.31272       -2.15008
Na         4.45643        2.50984       -3.47671
Mg         2.61382        2.74801       -5.29210
C          6.74305        4.05097       -4.95398
C          7.28663        3.38899       -2.79558
O          6.22279        3.73858       -3.67169
C          5.64233        4.22133       -5.97734
C          8.21780        4.57820       -2.48673
H          7.23465        5.04541       -4.90532
H          7.46022        3.28017       -5.32296
H          6.83991        3.04749       -1.85227
H          7.87879        2.52691       -3.16647
H          7.63348        5.46443       -2.16764
H          8.93867        4.30104       -1.68923
H          8.81263        4.87163       -3.37478
H          4.86689        4.91793       -5.59730
H          6.08314        4.63919       -6.90815
H          5.19563        3.24638       -6.21907
H          1.17664        6.69450        0.59090
C          0.71779        5.07334        1.96850
C          0.97405        5.60415        0.52614
C          1.96824        5.25402        2.84467
H         -0.15349        5.59707        2.42986
H          0.45880        3.99462        1.90422
H          2.78930        4.76915        2.28830
H          2.19863        6.33585        2.97330
C          1.92598        4.58804        4.23387
H          0.01810        5.49420       -0.03178
H          1.41683        5.19677        5.01487
H          1.47198        3.57480        4.19276
H          2.97746        4.46649        4.57343
C         -0.16365        2.06142       -6.48085
C         -0.41352        0.96146       -7.29288
C          0.81802        0.34369       -7.47731
C          1.72457        1.14248       -6.78034
N          1.13847        2.11610       -6.14544
C          3.24774        1.12466       -6.79803
N          3.98192        1.23554       -5.45840
C          4.93413        0.06405       -5.42494
H         -1.35352        0.65248       -7.72390
H         -0.90898        2.78570       -6.16949
H          1.01924       -0.52913       -8.08320
H          3.49371        0.26926       -7.43997
H          3.51786        2.02469       -7.37084
C          5.92226        0.05993       -6.64202
C          5.82515        0.17895       -4.18248
C          4.17776       -1.28703       -5.33074
H          6.46770        1.02513       -6.70558
H          6.66921       -0.75676       -6.53927
H          5.47464       -0.11882       -7.63817
H          5.23104        0.15913       -3.25229
H          6.54799       -0.66947       -4.14739
H          6.41362        1.11292       -4.22437
H          3.54250       -1.31092       -4.42147
H          3.52902       -1.48942       -6.20524
H          4.90396       -2.12798       -5.27807
