53
speciation926.ct
Na         5.93983        3.36896        2.38088
C          3.26013        2.86914        3.88420
C          1.95388        2.47921        3.74997
C          1.76954        2.17558        2.42353
C          2.98030        2.39649        1.80061
N          3.89193        2.81495        2.70663
C          3.20722        2.24738        0.34250
N          2.28931        3.11204       -0.44287
C          2.65149        4.61323       -0.39238
H          1.19526        2.43226        4.52633
H          3.72880        3.18862        4.81294
H          0.85452        1.84634        1.94627
H          4.26748        2.41567        0.06718
H          3.00070        1.18793        0.08374
C          4.14617        4.89106       -0.72286
C          1.83044        5.50521       -1.35184
C          2.33402        5.23177        0.99273
H          4.41243        4.47669       -1.71953
H          4.34342        5.98701       -0.75067
H          4.83881        4.48613        0.04083
H          0.74513        5.27097       -1.32250
H          1.93356        6.58687       -1.11610
H          2.27256        5.51963       -2.35481
H          1.26435        5.08115        1.24806
H          2.97695        4.86966        1.79977
H          2.53312        6.32850        0.99012
Na         2.33359        2.05158       -2.18312
Li         1.21247        1.82415       -1.96690
C         -1.76508        0.38817       -2.36435
C         -2.32342       -0.30605       -3.44074
C         -1.31546       -0.49217       -4.35666
C         -0.19908        0.07557       -3.78628
N         -0.45849        0.65893       -2.60530
C          1.11710        0.24036       -4.39494
N          1.60231        1.56900       -4.02605
C          0.94583        2.75221       -4.63190
H         -3.35838       -0.59715       -3.58354
H         -2.32439        0.74571       -1.51486
H         -1.38998       -0.94541       -5.34239
H          1.11454        0.06604       -5.49238
H          1.79404       -0.50477       -3.92964
C         -0.59391        2.89334       -4.40289
C          1.55952        3.89674       -3.91495
C          1.26315        2.86956       -6.11742
H         -0.85443        2.88353       -3.31928
H         -0.95221        3.88167       -4.75512
H         -1.18100        2.13465       -4.94723
H          2.67152        3.86171       -3.96252
H          1.17860        4.87691       -4.26035
H          1.24054        3.73928       -2.87097
H          2.36344        2.89347       -6.26556
H          0.82357        2.02804       -6.68376
H          0.83126        3.82130       -6.50591
