81
speciation734.ct
Na         4.92216        4.48731        2.20722
Mg         2.33526        7.50433       -3.74185
C          4.25515        9.88300       -3.42955
C          1.92728       10.11647       -3.63222
O          3.03809        9.29558       -3.90230
C          4.33835       10.15436       -1.91432
C          0.70010        9.48685       -4.27422
H          5.10180        9.23443       -3.72433
H          4.43906       10.84098       -3.97153
H          1.73032       10.17530       -2.54147
H          2.06305       11.12692       -4.07773
H          0.52258        8.47431       -3.85551
H         -0.19213       10.10872       -4.06291
H          0.84306        9.40425       -5.37230
H          4.21975        9.22102       -1.33103
H          5.33296       10.59439       -1.67654
H          3.58348       10.89751       -1.58303
H          2.94341        4.69483       -2.47989
C          5.02701        4.30432       -2.50055
C          3.67722        4.28725       -1.86107
C          5.89025        5.44884       -2.02707
H          5.50199        3.35408       -2.21379
H          4.90623        4.31186       -3.60442
H          5.88193        5.48250       -0.91335
H          6.91877        5.24714       -2.37649
C          5.42512        6.76674       -2.62523
H          3.56167        5.12795       -1.14624
H          5.46220        6.70346       -3.73501
H          4.38702        7.01758       -2.32038
H          6.11341        7.56430       -2.28617
C          2.33587        6.05293        1.50764
C          1.11278        5.98848        0.88773
C          1.01079        4.72316        0.35639
C          2.19635        4.07168        0.64106
N          2.99941        4.88241        1.36844
C          2.51632        2.62452        0.32305
N          3.13962        2.29545       -1.02083
C          3.48394        0.85244       -1.13011
H          0.36203        6.76445        0.85658
H          2.73026        6.91786        2.03837
H          0.16390        4.31061       -0.16222
H          3.20737        2.33486        1.13791
H          1.57956        2.06673        0.49353
C          2.19892       -0.00854       -1.12101
C          4.19154        0.63088       -2.47744
C          4.44419        0.37966       -0.02642
H          1.49821        0.35679       -1.90140
H          2.44641       -1.07236       -1.31875
H          1.69053        0.02184       -0.13958
H          5.13674        1.20791       -2.53114
H          4.45359       -0.43922       -2.60933
H          3.54261        0.92373       -3.32699
H          5.36733        1.00832       -0.00925
H          3.99901        0.38508        0.99100
H          4.76080       -0.67781       -0.19746
Mg         3.12915        2.88405       -3.11725
C          0.44031        5.42463       -2.83853
C          0.05355        4.10639       -2.93048
C          0.77571        3.55668       -3.95609
C          1.58140        4.56537       -4.44064
N          1.38391        5.71277       -3.72612
C          2.62001        4.38064       -5.46780
N          3.21781        3.04005       -5.33773
C          4.06559        2.72072       -6.56648
H         -0.64872        3.57987       -2.29622
H          0.09637        6.12908       -2.08963
H          0.76498        2.52500       -4.27779
H          3.38453        5.17454       -5.35976
H          2.07570        4.52002       -6.42030
C          5.29999        3.64818       -6.70421
C          4.58210        1.26675       -6.52185
C          3.24468        2.82552       -7.89669
H          5.97284        3.54909       -5.83012
H          5.88565        3.38511       -7.61834
H          5.00876        4.71090       -6.82660
H          3.74157        0.54378       -6.48582
H          5.16473        1.03899       -7.45153
H          5.26167        1.10077       -5.66448
H          2.33094        2.19584       -7.84719
H          2.95664        3.86242       -8.16424
H          3.84173        2.48938       -8.77539
