110
speciation2432.ct
Na         4.83992       -2.75714       -1.05218
Mg         5.67988        3.36761       -0.46285
C          6.54721       -3.53153        1.36480
C          7.45377       -4.32019       -0.69186
O          6.28982       -4.14825        0.10756
C          7.30033       -2.19403        1.30997
C          8.44289       -5.34070       -0.11517
H          5.55795       -3.32807        1.82547
H          7.05138       -4.24065        2.05469
H          7.13278       -4.70902       -1.68051
H          7.95775       -3.35508       -0.90133
H          7.96742       -6.34101       -0.04062
H          9.32448       -5.41524       -0.78718
H          8.81485       -5.03528        0.88387
H          6.77770       -1.48837        0.63249
H          7.33786       -1.75186        2.32766
H          8.35245       -2.32903        0.98297
H          5.70115        6.48115       -0.64426
C          7.37823        6.26058       -1.99409
C          6.54833        5.77894       -0.75025
C          8.66173        7.17062       -1.85717
H          7.69356        5.37580       -2.53507
H          6.69691        6.69036       -2.74394
H          9.27413        7.00693       -0.93687
H          9.33825        6.88400       -2.69681
C          8.41448        8.66190       -2.12174
H          7.16903        6.03032        0.14473
H          7.84665        8.77801       -3.07089
H          7.86919        9.14995       -1.29357
H          9.38498        9.19457       -2.27281
C          3.74409        3.35171       -2.92589
C          2.77607        2.75503       -3.69945
C          2.73689        1.43604       -3.32056
C          3.68404        1.25870       -2.33266
N          4.30205        2.46856       -2.04317
C          3.90821       -0.08947       -1.63733
N          3.35876       -1.33605       -2.23691
C          3.85533       -1.93111       -3.53821
H          2.13171        3.21951       -4.43508
H          3.96170        4.40932       -2.93907
H          2.02776        0.71443       -3.70451
H          3.43784        0.03120       -0.62410
H          4.97105       -0.24379       -1.40876
C          5.39271       -2.22273       -3.56146
C          3.06859       -3.25168       -3.75061
C          3.58622       -1.07767       -4.78510
H          5.79579       -2.88603       -2.78333
H          5.66223       -2.76670       -4.49329
H          5.97771       -1.28038       -3.53152
H          1.98166       -3.06134       -3.61257
H          3.18502       -3.64507       -4.78583
H          3.37019       -4.05806       -3.05039
H          2.50607       -0.91466       -4.94564
H          4.16715       -0.13457       -4.75553
H          3.94524       -1.62303       -5.68894
Na         7.11317        4.10118        0.86030
Mg         1.47239       -1.87929       -1.84372
C         -0.68168       -1.99382       -0.25302
C         -0.37713       -3.89454       -1.65593
O         -0.30908       -2.47754       -1.53916
C          0.09201       -2.61099        0.92219
C         -1.81010       -4.44331       -1.58324
H         -0.47260       -0.90433       -0.24849
H         -1.77784       -2.08371       -0.09452
H          0.00913       -4.16661       -2.65968
H          0.28471       -4.40739       -0.93064
H         -2.43326       -4.01442       -2.39655
H         -1.78765       -5.54778       -1.70173
H         -2.28635       -4.22660       -0.60548
H          1.18440       -2.51786        0.75142
H         -0.17485       -2.08275        1.86089
H         -0.17478       -3.67918        1.07172
H          3.80416        1.96278        1.24695
C          2.72498        3.83662        1.21264
C          4.07038        3.04825        1.26095
C          1.93434        3.57717       -0.07132
H          2.06279        3.57788        2.07373
H          2.97412        4.91348        1.27716
H          2.62575        3.74679       -0.87346
H          1.54830        2.53243       -0.10574
C          0.81088        4.57451       -0.34423
H          4.50837        3.24495        2.26191
H          0.02212        4.53635        0.43089
H          1.23393        5.60148       -0.40426
H          0.35721        4.34549       -1.33624
C          9.42171        5.39670        2.67519
C         10.53121        4.73662        3.16411
C         10.46886        3.45081        2.66941
C          9.30654        3.37579        1.88307
N          8.66497        4.54935        1.90662
C          8.62161        2.13544        1.17969
N          7.60023        2.27177        0.00320
C          8.17728        1.89980       -1.35034
H         11.29041        5.17374        3.83137
H          9.15089        6.42302        2.89600
H         11.19731        2.68127        2.91702
H          9.39998        1.36815        1.02136
H          8.05523        1.69444        2.01260
C          8.77532        0.46405       -1.35533
C          7.08823        1.85766       -2.43052
C          9.22022        2.88083       -1.82214
H          8.00319       -0.26694       -1.03749
H          9.08692        0.18597       -2.38524
H          9.68456        0.34571       -0.73945
H          6.60720        2.85842       -2.57932
H          7.49686        1.58011       -3.43104
H          6.34039        1.09309       -2.22215
H          8.76172        3.85453       -1.91844
H         10.07451        2.99919       -1.13535
H          9.59462        2.60858       -2.84310
