110
speciation2433.ct
Na         0.91364        0.02288        0.04493
Mg         3.55641        3.92792       -1.29004
C         -1.80305       -1.30315       -0.31524
C         -2.41983        0.90212       -0.48389
O         -1.40636        0.02288        0.04493
C         -0.91091       -2.37712        0.26703
C         -3.87789        0.79862        0.02116
H         -2.78907       -1.55744        0.11860
H         -1.81888       -1.43030       -1.42287
H         -2.17625        1.93129       -0.18088
H         -2.47564        0.77505       -1.58924
H         -3.97944        1.16728        1.06125
H         -4.49354        1.46537       -0.62799
H         -4.35142       -0.19536       -0.08171
H         -0.87537       -2.29954        1.37354
H         -1.33929       -3.37078       -0.00108
H          0.09360       -2.30624       -0.17407
H          4.43626        6.41608       -0.94021
C          5.68701        6.16033       -2.61799
C          4.99879        5.58845       -1.40053
C          4.65166        6.54700       -3.64340
H          6.28096        7.04798       -2.31210
H          6.42152        5.46274       -3.04685
H          3.99591        5.67690       -3.85232
H          4.07281        7.40098       -3.23561
C          5.30467        6.94442       -4.93939
H          5.87510        5.29213       -0.80209
H          6.03428        7.75794       -4.75398
H          5.82302        6.05910       -5.36601
H          4.52020        7.28570       -5.64404
C          5.58813        2.58373       -2.82052
C          6.12592        1.45058       -3.36495
C          5.41452        0.46045       -2.88256
C          4.46464        0.97592       -1.99485
N          4.59706        2.33226       -1.96089
C          3.34607        0.20332       -1.42947
N          3.28364        0.02288        0.04493
C          3.93603       -1.30089        0.43521
H          6.91840        1.42359       -4.10559
H          5.86432        3.53263       -3.11893
H          5.51702       -0.59252       -3.15843
H          3.33503       -0.74776       -1.97990
H          2.46379        0.66523       -1.82283
C          5.43570       -1.32591        0.03916
C          3.91772       -1.55246        1.94775
C          3.19052       -2.53993       -0.15795
H          5.97758       -0.48373        0.52542
H          5.92089       -2.27581        0.35050
H          5.59058       -1.27056       -1.04166
H          2.89407       -1.53685        2.37254
H          4.36425       -2.55088        2.17433
H          4.58250       -0.85429        2.44684
H          2.17848       -2.60226        0.27927
H          3.08419       -2.60529       -1.25321
H          3.72088       -3.47768        0.11586
Na        -2.04253        5.09258       -1.68927
Mg         3.54179        1.75423        1.33362
C          4.10966        0.72568        4.33143
C          6.01339        1.78202        3.36111
O          4.66802        1.32092        3.14106
C          4.07410        1.63055        5.58212
C          7.04210        0.73983        3.86372
H          3.07344        0.40257        4.11332
H          4.64300       -0.21527        4.60133
H          6.44659        2.12595        2.40652
H          6.00134        2.65766        4.04248
H          7.22373       -0.04743        3.10272
H          8.00932        1.26050        4.04964
H          6.77000        0.26602        4.82852
H          3.48854        2.54642        5.40120
H          3.59676        1.08737        6.42621
H          5.09107        1.91144        5.92815
H          2.57293        3.85731       -4.01245
C          1.02030        4.92085       -2.93990
C          2.17209        3.91062       -2.98056
C          1.33980        6.28050       -3.41526
H          0.15619        4.51225       -3.52529
H          0.79410        5.09099       -1.89179
H          2.17373        6.63290       -2.79579
H          1.57807        6.22112       -4.49561
C          0.16458        7.22698       -3.18747
H          1.79805        2.89376       -2.84692
H         -0.82228        6.81770       -3.50209
H          0.30343        7.97795       -3.95064
H          0.38465        8.25936       -2.87692
C         -0.73141        2.53426       -2.02348
C          0.17885        1.58327       -1.68372
C          0.89012        2.12578       -0.63505
C          0.37614        3.28781       -0.34176
N         -0.64301        3.58105       -1.17055
C          1.10420        4.07556        0.70871
N          2.59564        3.75541        0.73204
C          3.25906        4.52556        1.82638
H          0.31894        0.61807       -2.15129
H         -1.43667        2.44617       -2.83434
H          1.72674        1.76256       -0.08316
H          0.62761        3.81662        1.66926
H          0.89022        5.16886        0.48977
C          2.81878        4.02064        3.21486
C          4.75260        4.28372        1.72934
C          2.97377        6.04152        1.74773
H          2.88851        2.92722        3.25603
H          3.46039        4.47362        4.00604
H          1.77920        4.30307        3.46463
H          5.15153        4.88496        0.95288
H          5.31595        4.61245        2.62673
H          4.94839        3.23399        1.47488
H          3.11263        6.40929        0.71935
H          1.91873        6.27700        2.02975
H          3.62632        6.61437        2.43162
