110
speciation2357.ct
Na         1.24155       -0.90779       -0.96452
Mg         6.50555        2.93258       -0.87333
C         -0.63724       -1.67336        1.24514
C         -1.62649       -2.31877       -0.77560
O         -0.67987       -1.45515       -0.15968
C         -0.11815       -3.06166        1.66161
C         -1.78848       -1.99596       -2.24866
H          0.04374       -0.91190        1.67555
H         -1.63187       -1.48523        1.71235
H         -1.32915       -3.38807       -0.70124
H         -2.63233       -2.17870       -0.30886
H         -0.83510       -2.18419       -2.78201
H         -2.57566       -2.65091       -2.68206
H         -2.09190       -0.93682       -2.37569
H          0.86223       -3.27324        1.19541
H          0.00017       -3.09999        2.76591
H         -0.82814       -3.86933        1.38769
H          8.76652        1.46664       -0.87873
C          8.11979        0.63521       -2.75985
C          7.80565        1.16161       -1.34347
C          9.14143       -0.54092       -2.73341
H          7.18769        0.28583       -3.25046
H          8.56374        1.45099       -3.36290
H         10.09254       -0.19901       -2.26762
H          8.74616       -1.39047       -2.13368
C          9.46943       -1.06415       -4.13959
H          7.38038        0.32598       -0.74761
H          8.56480       -1.49105       -4.62126
H          9.87516       -0.25132       -4.77829
H         10.23838       -1.86692       -4.07875
C          3.80750        3.93355       -1.74625
C          2.50392        3.58192       -2.04185
C          2.43079        2.21718       -1.91135
C          3.69918        1.79897       -1.53747
N          4.55071        2.84078       -1.45530
C          4.10282        0.40133       -1.25837
N          3.24206       -0.53468       -1.99006
C          3.60966       -1.97444       -1.83980
H          1.69010        4.24428       -2.31064
H          4.18439        4.94416       -1.74378
H          1.54844        1.60423       -2.05624
H          4.03508        0.23363       -0.16749
H          5.14584        0.29915       -1.60087
C          3.52331       -2.44261       -0.36106
C          2.59821       -2.79561       -2.66719
C          5.02542       -2.28836       -2.36456
H          2.52651       -2.25422        0.07119
H          3.70518       -3.53567       -0.28693
H          4.27141       -1.93673        0.27937
H          2.63201       -2.48433       -3.73532
H          2.82145       -3.88062       -2.60894
H          1.56141       -2.64436       -2.30489
H          5.13137       -1.99664       -3.42742
H          5.80692       -1.78590       -1.75919
H          5.21962       -3.38162       -2.27875
Na         3.34295        3.77560        1.53424
Mg         2.97847       -0.05631       -3.90364
C          1.40699        0.13462       -6.21295
C          3.64942       -0.15824       -6.67385
O          2.72150        0.41005       -5.76914
C          0.38888        0.72966       -5.25246
C          5.07509        0.09230       -6.20571
H          1.23570        0.61898       -7.20221
H          1.22368       -0.96133       -6.28935
H          3.49757       -1.25541       -6.79037
H          3.55019        0.34472       -7.66379
H          5.27098       -0.44944       -5.25918
H          5.78379       -0.27390       -6.98046
H          5.24734        1.17857       -6.05302
H          0.55135        1.82332       -5.14835
H         -0.63454        0.55874       -5.65208
H          0.47006        0.24552       -4.25710
H          6.59555        5.52427       -1.81628
C          7.27863        4.61702       -3.64593
C          7.24905        4.67810       -2.11914
C          7.81732        5.94592       -4.22584
H          7.95268        3.78845       -3.94914
H          6.25802        4.41970       -4.03371
H          7.13665        6.78030       -3.94680
H          8.82648        6.16853       -3.81033
C          7.94189        5.89420       -5.74446
H          8.29425        4.93763       -1.87063
H          8.67080        5.10999       -6.04089
H          6.95611        5.67847       -6.20510
H          8.30754        6.87366       -6.12325
C          3.90348        3.29285        4.63292
C          4.81121        2.65620        5.45676
C          5.73786        2.05051        4.63051
C          5.35639        2.36098        3.32975
N          4.23672        3.10571        3.33115
C          6.06223        1.98489        2.05070
N          6.48805        3.17789        1.26584
C          7.56964        4.00490        1.88593
H          4.80507        2.64914        6.54442
H          3.04841        3.87083        4.95971
H          6.59859        1.47662        4.95006
H          5.34258        1.39790        1.44874
H          6.92181        1.31205        2.25665
C          8.82299        3.17889        2.25311
C          7.98109        5.02419        0.84964
C          7.08584        4.81597        3.11317
H          9.18042        2.60456        1.37054
H          9.64343        3.85307        2.58421
H          8.62405        2.47341        3.08409
H          7.09235        5.59385        0.49413
H          8.73651        5.74121        1.23065
H          8.46239        4.44110        0.06103
H          6.15016        5.36698        2.87738
H          6.93342        4.19309        4.00627
H          7.85796        5.55344        3.42039
