110
speciation1929.ct
Na         0.16277        5.29206        3.04195
Mg        -1.67574       -1.35523        0.71514
C          0.04877        7.42419        0.38602
C         -1.10877        5.34306        0.46220
O         -0.18047        6.19564        1.10136
C         -1.19177        8.27009        0.07467
C         -0.68707        4.86145       -0.91672
H          0.74966        8.05116        0.97893
H          0.59775        7.22057       -0.56335
H         -1.16257        4.43465        1.11359
H         -2.13218        5.77321        0.48712
H          0.33704        4.43000       -0.87870
H         -1.39773        4.07708       -1.26101
H         -0.71420        5.69002       -1.65099
H         -1.73230        8.51816        1.01577
H         -0.91687        9.19683       -0.44180
H         -1.89743        7.72440       -0.60505
H          0.16283        0.68414        1.20143
C          1.58404       -0.26793        0.09726
C          0.19939       -0.29257        0.70853
C          1.54419       -0.19009       -1.41849
H          2.14252        0.62296        0.48466
H          2.12875       -1.17622        0.41871
H          1.03365       -1.09489       -1.80900
H          0.99198        0.71645       -1.75632
C          2.97440       -0.13855       -1.94195
H          0.29511       -0.83760        1.66110
H          3.48077        0.78140       -1.57500
H          3.54100       -1.02474       -1.58123
H          2.97457       -0.13398       -3.04920
C          0.62719        2.70678        4.66461
C          0.54604        1.38376        4.99786
C         -0.30784        0.81583        4.09488
C         -0.80516        1.82793        3.29318
N         -0.15309        3.00865        3.58637
C         -1.90248        1.57001        2.23837
N         -2.47314        0.15314        2.21817
C         -3.53877       -0.13582        3.28471
H          1.06349        0.86159        5.78989
H          1.23877        3.41739        5.19692
H         -0.55134       -0.22748        4.06054
H         -2.69497        2.31948        2.36761
H         -1.51934        1.83148        1.23327
C         -4.61879        0.97420        3.36379
C         -4.27774       -1.42609        2.98197
C         -2.95902       -0.41212        4.70169
H         -5.08473        1.14791        2.36978
H         -5.42894        0.67457        4.07749
H         -4.22473        1.93562        3.75711
H         -3.55012       -2.19547        2.69314
H         -4.85750       -1.81492        3.86641
H         -5.08433       -1.26539        2.26004
H         -2.46270       -1.40885        4.74169
H         -3.19326        0.50544        5.28246
H         -2.16944       -0.00452        5.34466
Na        -2.67703       -0.22509        0.14120
Mg        -0.23368       -4.05447       -1.34210
C          2.75497        6.53309        3.48112
C          1.48294        7.14606        5.34010
O          1.44019        6.76032        3.96715
C          3.36854        5.24161        4.02546
C          0.14118        7.69748        5.78780
H          2.68492        6.44895        2.37814
H          3.42957        7.40098        3.66892
H          1.75884        6.29717        6.00022
H          2.21234        7.97937        5.48920
H         -0.62989        6.90405        5.73359
H          0.22138        8.05099        6.84073
H         -0.15362        8.55735        5.15029
H          2.68600        4.39799        3.81998
H          4.33555        5.03943        3.52205
H          3.56339        5.31150        5.11649
H          0.02086       -3.59745        0.79297
C         -1.81995       -4.38002        1.62150
C         -0.78091       -3.26144        1.49206
C         -1.29723       -5.71055        2.22005
H         -2.64347       -4.02724        2.25253
H         -2.18670       -4.56807        0.59194
H         -0.46003       -6.07083        1.59878
H         -0.93383       -5.55058        3.26015
C         -2.37520       -6.80926        2.24180
H         -0.28029       -3.05505        2.46449
H         -3.12578       -6.66300        3.05098
H         -2.89078       -6.88004        1.25894
H         -1.89338       -7.78859        2.43791
C         -1.44812       -5.00039       -3.81578
C         -2.30093       -4.61067       -4.86109
C         -2.68838       -3.31052       -4.57590
C         -2.08253       -2.95163       -3.37784
N         -1.31917       -3.97451       -2.94417
C         -2.24921       -1.62652       -2.63126
N         -2.88805       -1.76314       -1.28076
C         -4.28890       -2.33285       -1.32570
H         -2.59407       -5.21457       -5.69489
H         -0.97168       -5.93935       -3.73453
H         -3.37772       -2.72215       -5.18662
H         -2.84642       -0.93780       -3.25875
H         -1.25235       -1.16240       -2.52783
C         -4.37551       -3.83602       -1.71954
C         -4.85085       -2.23795        0.04349
C         -5.26817       -1.53090       -2.25327
H         -3.67301       -4.44776       -1.12397
H         -5.40269       -4.22567       -1.54153
H         -4.23097       -4.03681       -2.78806
H         -4.85546       -1.15608        0.27249
H         -5.88966       -2.62957        0.11473
H         -4.20177       -2.83039        0.71400
H         -5.39800       -0.48394       -1.89980
H         -4.96395       -1.51395       -3.31665
H         -6.27896       -2.00361       -2.23633
