96
speciation1730.ct
Na         3.72789        1.91878        1.74667
Mg        -1.48635        3.53254        3.63801
C         -1.24688        4.29592        6.23356
C          0.48097        2.82449        5.62263
O         -0.88392        3.15298        5.45342
C         -0.41912        5.57318        5.97303
C          0.81024        2.28573        7.03667
H         -2.29520        4.52781        6.00518
H         -1.27164        4.07338        7.31552
H          0.79619        2.06535        4.87270
H          1.09998        3.69679        5.39584
H          0.71309        1.18107        7.06978
H          1.82253        2.59839        7.31728
H          0.20807        2.72215        7.85104
H         -0.43147        5.82853        4.89249
H         -0.85143        6.41451        6.55146
H          0.63103        5.48994        6.32196
H         -3.12419        6.91212        0.23201
C         -3.15119        5.83218       -1.66221
C         -2.42647        6.34940       -0.42389
C         -4.25783        4.83946       -1.30615
H         -3.58851        6.69859       -2.20493
H         -2.40922        5.33311       -2.32239
H         -3.81318        3.96928       -0.79406
H         -5.00056        5.31516       -0.62914
C         -4.96876        4.34342       -2.56210
H         -1.62108        7.03868       -0.75432
H         -5.46550        5.18952       -3.08264
H         -4.24136        3.86618       -3.25364
H         -5.73808        3.59236       -2.28479
C          5.83293       -0.49034        0.87801
C          6.14984       -1.72174        1.43423
C          5.42165       -1.83381        2.60152
C          4.71686       -0.65538        2.70938
N          4.93242        0.14240        1.65509
C          3.82072       -0.25351        3.81812
N          3.56243        1.19822        3.73206
C          4.44100        2.09308        4.52028
H          6.83208       -2.45586        1.03382
H          6.21764       -0.09499       -0.05080
H          5.42134       -2.66025        3.30242
H          4.26986       -0.53495        4.78417
H          2.86611       -0.81647        3.72180
C          5.91680        1.99415        4.10878
C          3.98238        3.53474        4.23361
C          4.30840        1.79159        6.02082
H          6.03742        2.22202        3.03011
H          6.52124        2.72420        4.69011
H          6.31900        0.97983        4.31333
H          2.91810        3.65358        4.44246
H          4.53955        4.27345        4.84762
H          4.12738        3.79106        3.16403
H          3.25209        1.65232        6.24493
H          4.80833        0.84833        6.31487
H          4.74639        2.60133        6.64306
Mg        -1.48118        4.92941        0.69489
C         -3.69588        5.13506        3.03736
C         -4.33764        3.36535        4.46484
O         -3.37837        3.84601        3.53492
C         -3.74464        6.24074        4.10092
C         -3.99367        1.95604        4.92457
H         -2.89665        5.40476        2.32070
H         -4.64003        5.10931        2.44946
H         -4.39547        3.99864        5.37360
H         -5.33902        3.31231        3.98010
H         -3.02528        1.94551        5.45543
H         -4.77336        1.59818        5.63019
H         -3.94879        1.26158        4.05956
H         -2.80608        6.26774        4.68077
H         -3.86565        7.22748        3.60751
H         -4.60515        6.11017        4.78957
C          3.42360        4.25222       -0.35072
C          2.61778        5.28517       -0.77487
C          1.53309        5.31663        0.07020
C          1.72723        4.29469        0.98724
N          2.88152        3.64226        0.72046
C          0.81718        3.96828        2.14051
N         -0.55907        3.54422        1.78624
C         -0.72920        2.25716        1.07958
H          2.80499        5.94738       -1.61381
H          4.36481        3.95421       -0.79998
H          0.69811        6.00816        0.02981
H          1.28958        3.20797        2.78898
H          0.73536        4.88690        2.75644
C          0.03042        1.10935        1.77726
C         -2.22439        1.92414        1.10780
C         -0.29848        2.39430       -0.39774
H         -0.29716        1.03063        2.83619
H         -0.17097        0.14082        1.27274
H          1.12775        1.26707        1.75507
H         -2.80862        2.76085        0.68870
H         -2.44092        1.00556        0.52099
H         -2.56683        1.76271        2.14931
H         -0.82480        3.25097       -0.87149
H          0.78818        2.54320       -0.51200
H         -0.54024        1.47271       -0.97012
