53
speciation917.ct
Na         1.63595        0.14935        0.93010
C          0.15958       -2.50291        0.24009
C          0.16938       -3.49100       -0.72154
C          1.08003       -3.10534       -1.67786
C          1.57005       -1.88946       -1.27536
N          1.02458       -1.53392       -0.09459
C          2.55928       -1.07863       -2.05593
N          1.89370        0.12819       -2.55567
C          1.46160        0.18996       -3.96754
H         -0.41123       -4.39980       -0.72727
H         -0.42752       -2.50356        1.14618
H          1.35196       -3.63663       -2.57899
H          2.96737       -1.69655       -2.86961
H          3.43657       -0.79258       -1.45943
C          0.29075       -0.78415       -4.14168
C          0.96728        1.61661       -4.25734
C          2.59274       -0.13157       -4.98071
H         -0.49939       -0.54791       -3.39359
H         -0.14333       -0.72011       -5.15875
H          0.62659       -1.82500       -3.97844
H          1.80259        2.34321       -4.16095
H          0.57013        1.68903       -5.29413
H          0.16368        1.90942       -3.54984
H          3.43305        0.58808       -4.88300
H          2.99598       -1.15695       -4.88257
H          2.19843       -0.06985       -6.01875
Na         2.04948        1.82834       -1.39660
Li         2.69254        1.75794       -1.80196
C          4.44783       -0.72830        0.82766
C          5.75583       -0.39933        0.62075
C          5.79986        0.97712        0.49668
C          4.49414        1.43175        0.62140
N          3.68201        0.38790        0.79699
C          4.04177        2.84868        0.60419
N          3.40330        3.20398       -0.66942
C          2.91539        4.58605       -0.84189
H          6.58491       -1.09054        0.55456
H          4.04712       -1.73368        0.95584
H          6.67609        1.57447        0.31625
H          3.34894        2.97123        1.46256
H          4.92904        3.48428        0.75661
C          4.12958        5.52545       -0.92802
C          2.13618        4.66651       -2.16828
C          1.97065        5.02724        0.29809
H          4.80540        5.18338       -1.74300
H          3.81357        6.56736       -1.13678
H          4.70342        5.53135        0.01995
H          1.23291        4.01886       -2.13519
H          1.79731        5.70847       -2.36203
H          2.77014        4.34075       -3.01950
H          1.08089        4.36372        0.35391
H          2.48391        5.02146        1.28067
H          1.61943        6.06788        0.12367
