68
speciation66.ct
Na         0.91461        0.04333       -0.02885
Mg         3.53859        3.18683       -1.01115
C         -2.08889        1.22541       -0.39772
C         -2.12636       -0.76843        0.87678
O         -1.40539        0.04333       -0.02885
C         -2.34488        2.18015        0.76995
C         -1.29653       -1.99002        1.23939
H         -1.44431        1.75189       -1.13307
H         -3.03337        0.98533       -0.93416
H         -2.34608       -0.24402        1.82989
H         -3.06266       -1.12667        0.39448
H         -0.38030       -1.67889        1.78562
H         -1.89254       -2.65947        1.89660
H         -1.00786       -2.54629        0.32368
H         -1.39988        2.35953        1.31683
H         -2.74590        3.13969        0.38106
H         -3.09521        1.77374        1.47665
C          5.60902        2.62289       -2.91957
C          6.15459        1.52164       -3.53816
C          5.44264        0.42011       -3.08585
C          4.49130        0.89974       -2.20043
N          4.61179        2.23171       -2.11161
C          3.37784        0.08748       -1.52630
N          3.28461        0.04333       -0.02885
C          4.02051       -1.08738        0.61353
H          6.97528        1.53104       -4.24498
H          5.91119        3.65628       -3.05120
H          5.60473       -0.60832       -3.38776
H          3.38150       -0.92413       -1.96517
H          2.43415        0.53878       -1.89627
C          5.53589       -0.98091        0.33573
C          3.80765       -1.01013        2.13381
C          3.50565       -2.47548        0.14665
H          5.93575       -0.01467        0.71040
H          6.08575       -1.80663        0.83879
H          5.75659       -1.06110       -0.74712
H          2.73193       -1.11692        2.38591
H          4.36639       -1.82742        2.64439
H          4.17656       -0.04487        2.53781
H          2.41424       -2.56843        0.32961
H          3.70939       -2.69343       -0.91942
H          4.02162       -3.28429        0.70949
Na         3.69513        1.67457        0.90060
C         -0.87962        5.64454        0.23681
C         -0.24412        5.60751       -0.98334
C          0.69367        4.59958       -0.92408
C          0.62282        4.04637        0.29429
N         -0.35172        4.66594        1.09098
C          1.50486        2.97982        0.77004
N          2.89369        3.40036        0.67028
C          3.56605        4.28802        1.59828
H         -0.43377        6.25923       -1.82758
H         -1.65364        6.33280        0.52841
H          1.38356        4.30186       -1.71167
H          1.36513        2.13225        0.07257
H          1.25091        2.61445        1.78318
C          3.37499        3.80559        3.04653
C          5.06695        4.23902        1.24254
C          3.04510        5.70878        1.39307
H          3.76771        2.76935        3.16137
H          3.91674        4.46888        3.74944
H          2.30363        3.80243        3.32980
H          5.22802        4.52567        0.18169
H          5.64605        4.93272        1.89038
H          5.47543        3.21435        1.37974
H          3.14657        5.98949        0.32055
H          1.97650        5.77482        1.67608
H          3.60797        6.42719        2.01718
