83
speciation323.ct
Na         0.74558       -0.06304       -0.21751
Mg         1.46931        6.59977        4.43484
C          1.27876       -2.79641        1.01162
C          0.77539       -1.23006        2.74273
O          1.25385       -1.42660        1.41170
C         -0.02642       -3.58258        1.23191
C          1.74431       -1.76450        3.81782
H          1.48701       -2.80729       -0.07558
H          2.13778       -3.32939        1.47572
H          0.66492       -0.14261        2.92432
H         -0.23691       -1.65661        2.88492
H          2.69202       -1.19810        3.81762
H          1.27224       -1.66034        4.82544
H          1.96392       -2.84620        3.68760
H         -0.88251       -3.04384        0.77588
H          0.05877       -4.58712        0.76681
H         -0.22291       -3.75580        2.31190
C         -0.69445        6.20411        0.32019
C         -1.33365        6.28870       -0.89408
C         -1.10377        5.09132       -1.54321
C         -0.34261        4.32776       -0.68285
N         -0.09259        5.01411        0.43777
C          0.13082        2.91137       -0.93398
N         -0.32921        1.92018        0.07606
C         -1.79271        1.67869        0.20349
H         -1.90258        7.13204       -1.25305
H         -0.66441        6.96673        1.08864
H         -1.46712        4.81156       -2.51930
H          1.23690        2.93252       -0.91934
H         -0.17108        2.59860       -1.94664
C         -2.41231        1.25836       -1.14407
C         -1.97231        0.53482        1.20864
C         -2.57151        2.90049        0.76068
H         -1.88575        0.37074       -1.55654
H         -3.48809        1.00935       -1.01635
H         -2.35735        2.08413       -1.88585
H         -1.53911        0.81709        2.19292
H         -3.04792        0.30721        1.36148
H         -1.46619       -0.38513        0.85338
H         -2.11942        3.26965        1.69783
H         -2.64013        3.73312        0.04286
H         -3.62542        2.62648        0.97124
Na         0.97534        4.44571        2.03900
C          1.74598        0.31230       -3.07195
C          0.63852       -1.79443       -2.85523
O          1.32499       -0.73356       -2.19611
C          0.68127        0.84553       -4.05087
C          1.56618       -2.63208       -3.75444
H          2.05965        1.15905       -2.43044
H          2.66039        0.01335       -3.62985
H          0.22340       -2.47703       -2.08847
H         -0.24016       -1.43280       -3.42440
H          2.35038       -3.13267       -3.14864
H          0.97346       -3.41251       -4.27894
H          2.05639       -2.01440       -4.53602
H         -0.25045        1.10901       -3.51658
H          1.07015        1.74583       -4.57205
H          0.43659        0.10188       -4.83724
C          3.33762        2.52557        1.38102
C          4.32422        1.94958        2.15235
C          4.11214        2.37568        3.45306
C          3.00163        3.19306        3.41524
N          2.55200        3.27785        2.16652
C          2.34327        3.90710        4.57048
N          1.16858        4.69403        4.11922
C         -0.15641        4.29915        4.64049
H          5.10749        1.29388        1.79925
H          3.20420        2.40792        0.31386
H          4.69867        2.11796        4.32240
H          3.08107        4.60614        5.01723
H          2.07748        3.15160        5.32780
C         -0.22817        4.40768        6.17852
C         -1.19638        5.27388        4.05450
C         -0.50475        2.87051        4.18130
H          0.01491        5.44023        6.50725
H         -1.25336        4.15990        6.53122
H          0.46414        3.70615        6.68213
H         -1.20159        5.23270        2.94706
H         -2.22152        5.02378        4.40733
H         -0.97133        6.31905        4.35807
H         -0.41646        2.79586        3.07918
H          0.18169        2.11903        4.61946
H         -1.54210        2.60132        4.47490
