53
speciation873.ct
Na         0.93257       -0.00122       -0.07384
C          1.69868        5.34825        4.59133
C          0.59496        5.98986        3.98575
C         -0.15692        5.19397        3.07825
C          0.39507        3.94135        2.99130
N          1.81682        4.08071        4.19511
C         -0.65002        1.79848        1.36315
N         -1.43743       -0.00122       -0.07384
C         -1.90729       -0.81681       -1.19492
H          0.35149        7.02016        4.20891
H          2.37861        5.80817        5.30353
H         -1.03392        5.53674        2.53584
H         -0.79549        1.21499        2.29264
H         -1.54099        2.43485        1.17043
C         -0.96310       -0.69046       -2.38574
C         -1.93188       -2.29089       -0.71875
C         -3.32513       -0.39728       -1.59534
H          0.04560       -0.99648       -2.08470
H         -1.28631       -1.36181       -3.21185
H         -0.91585        0.35336       -2.75100
H         -2.64423       -2.43536        0.12202
H         -2.25394       -2.97826       -1.52774
H         -0.92606       -2.60848       -0.36276
H         -4.01625       -0.48654       -0.73037
H         -3.32793        0.65368       -1.94964
H         -3.70071       -1.05190       -2.41294
Na        -2.39530       -0.88565        1.63240
Mg         2.29869        2.18444        3.83171
C          2.68366       -0.58578        4.47768
C          3.51157       -1.64325        4.23457
C          4.14214       -1.36612        3.03461
C          3.57805       -0.20664        2.50884
N          2.78056        0.28817        3.46832
C          3.91048        0.53485        1.19871
N          3.30257       -0.00122       -0.07384
C          3.67860       -1.41123       -0.48101
H          3.69218       -2.47531        4.90239
H          2.12442       -0.40746        5.38765
H          4.94019       -1.96302        2.61314
H          5.00574        0.67788        1.09996
H          3.49106        1.55693        1.31295
C          3.12813       -2.56280        0.43220
C          2.99453       -1.75869       -1.81363
C          5.20110       -1.50925       -0.69598
H          2.03071       -2.47681        0.57734
H          3.35669       -3.55199       -0.01706
H          3.53533       -2.77086        1.38978
H          3.23065       -1.05004       -2.62398
H          3.29047       -2.78458       -2.14337
H          1.90465       -1.80743       -1.66014
H          5.50216       -0.80185       -1.50051
H          5.77084       -1.25721        0.21984
H          5.49720       -2.53347       -1.00706
