96
speciation1076.ct
Na         1.26863        0.04905        0.16686
Mg        -3.57832       -0.73462       -3.96843
C         -0.03590        0.92150        2.42333
C          2.21608        1.02443        3.06703
O          1.26255        0.40665        2.21165
C         -0.17811        2.39034        2.01555
C          3.60260        0.42001        2.89375
H         -0.70970        0.33382        1.76709
H         -0.38617        0.73690        3.46166
H          2.30391        2.11381        2.88502
H          1.92876        0.84202        4.12796
H          3.99170        0.63137        1.88340
H          4.29532        0.88004        3.63426
H          3.58354       -0.67617        3.05488
H          0.22420        2.53145        0.99371
H         -1.24819        2.67963        2.02621
H          0.35423        3.06182        2.71993
H         -3.15289       -3.20278       -4.94507
C         -3.98497       -2.33040       -6.74436
C         -3.92852       -2.45508       -5.21572
C         -2.65169       -1.85550       -7.32853
H         -4.22922       -3.32812       -7.17661
H         -4.79428       -1.62395       -7.02531
H         -2.39745       -0.86527       -6.90638
H         -1.84546       -2.57257       -7.06116
C         -2.72048       -1.73945       -8.85178
H         -4.90908       -2.84794       -4.87068
H         -2.92668       -2.73060       -9.31021
H         -3.51838       -1.02725       -9.15286
H         -1.74948       -1.36639       -9.24141
C          0.31722       -2.83758        0.89349
C         -0.44653       -3.94442        0.59287
C         -1.09116       -3.66504       -0.59559
C         -0.69625       -2.38857       -0.96284
N          0.18619       -1.88476       -0.05516
C         -1.20681       -1.65257       -2.18299
N         -2.69098       -1.51076       -2.19282
C         -3.31094       -0.74560       -1.07932
H         -0.55222       -4.84691        1.18217
H          0.93343       -2.73223        1.77734
H         -1.78702       -4.30994       -1.11501
H         -0.71919       -0.66612       -2.26968
H         -0.91438       -2.24658       -3.07382
C         -2.75871        0.69203       -1.04861
C         -4.80248       -0.72713       -1.37813
C         -3.18044       -1.39113        0.32248
H         -2.85100        1.16317       -2.05045
H         -3.30352        1.30989       -0.30472
H         -1.68688        0.69309       -0.75537
H         -5.22386       -1.75620       -1.36973
H         -5.36510       -0.09514       -0.65691
H         -4.91659       -0.34129       -2.38311
H         -3.54120       -2.44271        0.31071
H         -2.16079       -1.35230        0.73189
H         -3.79372       -0.82863        1.06008
Mg         2.22919        5.47453        0.95779
C         -5.83902        1.18505       -4.44939
C         -3.98471        1.43626       -5.91421
O         -4.43231        0.96068       -4.64690
C         -6.77020        0.64165       -5.54145
C         -4.05863        2.96939       -6.04748
H         -6.17566        0.70346       -3.52597
H         -6.04089        2.25840       -4.25076
H         -2.91830        1.16699       -6.03377
H         -4.51851        0.94283       -6.75191
H         -3.38894        3.45529       -5.30757
H         -3.74033        3.27173       -7.06800
H         -5.08852        3.35855       -5.91016
H         -6.56979       -0.43493       -5.71579
H         -7.82493        0.75943       -5.21175
H         -6.66879        1.21114       -6.48771
C          2.14001        0.49865       -2.62955
C          2.51504        1.28182       -3.69808
C          2.45698        2.58284       -3.26690
C          2.05317        2.54058       -1.95051
N          1.85143        1.25512       -1.55241
C          1.88662        3.77544       -1.10864
N          2.68827        3.76752        0.12000
C          4.16897        3.79623        0.03809
H          2.80315        0.94072       -4.68238
H          2.08309       -0.57951       -2.63366
H          2.69306        3.46398       -3.84937
H          2.10703        4.68772       -1.70301
H          0.81827        3.84727       -0.82535
C          4.68301        5.00434       -0.76991
C          4.67364        3.92925        1.48480
C          4.75226        2.49915       -0.55987
H          4.30353        5.95633       -0.34233
H          5.79518        5.03098       -0.75113
H          4.37289        4.93826       -1.83323
H          4.30156        3.08931        2.10292
H          5.78366        3.92595        1.52843
H          4.30620        4.87405        1.94073
H          4.34595        1.60849       -0.04745
H          4.54704        2.40861       -1.64015
H          5.85879        2.49060       -0.46501
