96
speciation1499.ct
Na         0.68922        1.49644       -0.42068
Mg         3.52918       -0.58324       -1.89427
C          1.07953       -0.82617       -3.86123
C          3.07420       -0.46369       -4.96618
O          2.49914       -0.84843       -3.72440
C          0.39514       -2.01276       -4.51709
C          4.52358       -0.20072       -4.80141
H          0.64039       -0.70069       -2.86416
H          0.77938        0.02106       -4.50501
H          2.94816       -1.26638       -5.72217
H          2.65535        0.50395       -5.33773
H          4.99733       -1.11079       -4.45268
H          4.98899        0.12179       -5.75156
H          4.59293        0.59620       -4.07066
H          0.48542       -2.93141       -3.91026
H         -0.69137       -1.76423       -4.60293
H          0.76792       -2.16971       -5.54887
H          4.44330        2.08252       -1.58074
C          6.30173        1.78028       -2.61280
C          5.12470        1.22947       -1.77682
C          7.02382        2.93886       -1.89073
H          7.03225        0.96320       -2.79158
H          5.94156        2.16943       -3.58530
H          6.31742        3.78171       -1.73348
H          7.40149        2.61248       -0.89208
C          8.21859        3.43914       -2.70201
H          5.70292        0.96242       -0.88219
H          8.97772        2.63409       -2.80352
H          7.88805        3.75952       -3.71227
H          8.69063        4.30581       -2.19133
C         -2.02244        0.81686        0.91336
C         -2.57961       -0.43209        1.13435
C         -1.60536       -1.36439        0.81796
C         -0.48933       -0.64917        0.43200
N         -0.77417        0.65540        0.46418
C          0.85048       -1.24110       -0.03335
N          2.01842       -0.28032       -0.14292
C          2.68064       -0.14059        1.21855
H         -3.59301       -0.64007        1.42278
H         -2.54042        1.76402        0.96902
H         -1.69995       -2.43822        0.83964
H          0.62458       -1.70279       -0.99696
H          1.08015       -2.07341        0.64884
C          3.43452       -1.43663        1.66075
C          3.72703        0.96123        1.18054
C          1.72664        0.27779        2.36782
H          4.15133       -1.75607        0.87778
H          4.01506       -1.26228        2.59373
H          2.75877       -2.28072        1.89342
H          3.31368        1.92821        0.82507
H          4.23687        1.11478        2.15848
H          4.48553        0.57022        0.54525
H          1.23516        1.25175        2.15952
H          0.95959       -0.49415        2.59956
H          2.29150        0.40860        3.31320
Mg         3.06417        3.66794       -1.96096
C          6.04713       -2.23580       -2.36389
C          4.09297       -3.42488       -2.01627
O          4.75970       -2.20704       -1.72160
C          7.02999       -3.19189       -1.67528
C          2.67287       -3.34329       -1.56294
H          6.01040       -2.55257       -3.42364
H          6.48598       -1.22208       -2.31186
H          4.08224       -3.64343       -3.11403
H          4.54046       -4.25454       -1.44486
H          2.17111       -2.56832       -2.14790
H          2.14960       -4.30440       -1.72715
H          2.67566       -3.10174       -0.48858
H          6.70638       -4.24796       -1.78842
H          8.02616       -3.11782       -2.16231
H          7.12816       -2.94764       -0.59901
C         -2.00493        0.56259       -2.25824
C         -2.28915        0.73862       -3.59487
C         -1.22090        1.42357       -4.13264
C         -0.32773        1.61554       -3.09104
N         -0.79732        1.10659       -1.96761
C          1.03254        2.24653       -3.09047
N          1.20651        3.07834       -1.89944
C          0.41962        4.33539       -1.86778
H         -3.18051        0.40058       -4.10465
H         -2.65545        0.06448       -1.55532
H         -1.09555        1.70690       -5.16707
H          1.30035        2.72457       -4.05067
H          1.77666        1.44435       -2.93995
C         -1.11356        4.11604       -1.79794
C          0.83608        5.07251       -0.59725
C          0.74892        5.20825       -3.10236
H         -1.37667        3.44710       -0.95128
H         -1.63791        5.08188       -1.64840
H         -1.53403        3.71830       -2.74014
H          1.92728        5.28203       -0.61221
H          0.28797        6.03128       -0.50558
H          0.61115        4.44381        0.29302
H          1.84028        5.40726       -3.15587
H          0.43827        4.71344       -4.04625
H          0.20332        6.17325       -3.05965
