53
speciation893.ct
Na         1.57802        0.90784        1.14809
C          4.50741        1.73233        2.87694
C          5.40221        2.77330        2.57197
C          4.87044        3.42669        1.50218
C          3.70067        2.77003        1.19687
N          3.46901        1.73311        2.00142
C          2.74401        3.06301        0.10052
N          2.57615        1.84410       -0.71898
C          3.42652        1.86345       -2.01867
H          6.31576        3.01105        3.09072
H          4.63402        1.01763        3.68088
H          5.29181        4.28493        0.98343
H          3.05278        3.96347       -0.44948
H          1.76606        3.28440        0.57949
C          4.91643        2.16432       -1.72847
C          3.48712        0.60858       -3.01875
C          2.80597        2.94109       -2.92355
H          5.41056        1.32087       -1.19823
H          5.45906        2.31154       -2.68769
H          5.06489        3.09089       -1.15734
H          2.59639        0.34941       -3.60433
H          4.14623        0.87269       -3.86676
H          3.96457       -0.33684       -2.74368
H          1.74270        2.65900       -3.11107
H          2.82159        3.95095       -2.50010
H          3.32648        2.99748       -3.90047
Na         1.73331        0.32928        0.75130
Li         2.58915       -3.23570        1.17036
C         -1.75989        0.80319        1.00528
C         -2.83063       -0.00596        0.66172
C         -2.32560       -1.26879        0.47325
C         -0.97174       -1.17705        0.69926
N         -0.61172        0.09009        1.01721
C         -0.02146       -2.30617        0.49059
N          1.36726       -1.83700        0.57845
C          1.97016       -1.40328       -0.70326
H         -3.85983        0.29430        0.51155
H         -1.81826        1.86951        1.16674
H         -2.86767       -2.14688        0.14135
H         -0.20196       -3.08571        1.25545
H         -0.23581       -2.77766       -0.48729
C          0.95068       -0.38388       -1.41672
C          3.44222       -1.02688       -0.21936
C          2.16088       -2.56023       -1.72448
H          0.60908        0.50611       -0.88009
H          1.17628        0.07425       -2.34588
H          0.01117       -0.89584       -1.69671
H          3.94916       -1.94920        0.12556
H          4.18060       -0.57440       -0.85147
H          3.53977       -0.40514        0.68236
H          2.86865       -3.32836       -1.35368
H          1.21815       -3.06434       -2.00512
H          2.57042       -2.15074       -2.67416
