95
speciation1812.ct
Na         4.62649       -1.85765        1.51226
Mg         4.25023        5.26233        7.84299
C          6.99182        6.10402        8.26114
C          5.29910        7.70744        8.57393
O          5.70352        6.54722        7.86759
C          7.44602        4.93989        7.39063
C          5.14346        7.49568       10.08614
H          7.73234        6.92046        8.10376
H          7.01259        5.76006        9.31587
H          5.98307        8.55894        8.36025
H          4.30821        8.00184        8.17098
H          6.12389        7.32086       10.57557
H          4.71243        8.41016       10.54427
H          4.46926        6.63694       10.28736
H          7.41677        5.20964        6.31563
H          8.47980        4.64474        7.67036
H          6.80105        4.06589        7.54907
H          5.38528        4.40773        2.83495
C          5.05289        6.04878        1.47090
C          4.70206        4.64890        1.99281
C          4.82493        7.20051        2.45778
H          6.12658        6.05012        1.17431
H          4.44820        6.24620        0.56072
H          5.12101        8.14677        1.95512
H          3.75381        7.27849        2.68747
C          5.62207        7.08002        3.75709
H          4.92186        3.97496        1.14436
H          5.31968        6.17986        4.33066
H          6.71037        7.03647        3.54124
H          5.42214        7.97007        4.39144
C          1.85891        1.57527        4.00323
C          2.02345        0.23421        4.29449
C          3.18581       -0.15048        3.66999
C          3.68327        0.96491        3.02485
N          2.88289        2.03119        3.26715
C          4.98483        1.02598        2.26357
N          5.04183        0.18771        1.04418
C          6.34238        0.27241        0.30781
H          1.36258       -0.36266        4.90608
H          1.04895        2.19931        4.35777
H          3.60885       -1.14708        3.68474
H          5.76195        0.72054        2.98521
H          5.14140        2.06722        1.99268
C          7.53969       -0.12554        1.20586
C          6.30706       -0.70658       -0.87933
C          6.57713        1.69109       -0.25947
H          7.39699       -1.14984        1.61470
H          8.48558       -0.10997        0.61928
H          7.68883        0.58255        2.04371
H          5.48091       -0.45958       -1.57871
H          7.26161       -0.65685       -1.45351
H          6.17916       -1.75365       -0.53258
H          5.74003        1.98661       -0.92761
H          6.68753        2.44988        0.53700
H          7.51909        1.72315       -0.85063
Na         3.53684        0.79707       -0.35465
Mg         2.79392        3.93460        2.72527
H          1.11152        4.92829        0.83682
C         -0.13226        3.30643        1.58746
C          1.24653        3.91000        1.25403
C         -0.90802        4.12541        2.62458
H         -0.73063        3.26375        0.64993
H         -0.00442        2.26406        1.95554
H         -0.34435        4.14545        3.57979
H         -1.03349        5.16663        2.25775
C         -2.29937        3.53342        2.87485
H          1.70260        3.26242        0.47423
H         -2.90276        3.54266        1.94034
H         -2.22531        2.48857        3.24462
H         -2.83400        4.13985        3.63742
C          1.84299        6.33059        4.06805
C          1.70210        7.03167        5.24538
C          2.12638        6.19850        6.24875
C          2.51854        5.01335        5.64357
N          2.34801        5.09942        4.29846
C          3.05780        3.81218        6.38121
N          2.75948        3.94433        7.81776
C          3.23735        2.84788        8.70252
H          1.34181        8.04635        5.35675
H          1.60096        6.70840        3.08641
H          2.16711        6.44444        7.30294
H          2.57490        2.91380        5.99703
H          4.15522        3.76086        6.19709
C          4.76807        2.86463        8.82277
C          2.64541        3.08970       10.10004
C          2.79950        1.44583        8.21884
H          5.12106        3.85463        9.18170
H          5.11974        2.09873        9.54760
H          5.22591        2.61738        7.84604
H          1.53606        3.04861       10.06150
H          2.99832        2.31669       10.81871
H          2.94792        4.08744       10.48493
H          1.69566        1.37642        8.13921
H          3.25390        1.19218        7.23775
H          3.15105        0.66986        8.93547
