95
speciation1511.ct
Na        -3.02292        0.56765        5.39253
Mg        -1.82874       -3.75321        0.90020
C         -4.03682       -5.64392        1.20207
C         -4.48172       -3.39564        1.82915
O         -3.50117       -4.41488        1.69672
C         -4.93187       -5.57202       -0.05044
C         -5.47518       -3.66094        2.96080
H         -3.18905       -6.30500        0.97170
H         -4.58888       -6.16209        2.02004
H         -3.96195       -2.46111        2.07548
H         -5.01229       -3.18035        0.88304
H         -4.93707       -3.80377        3.92050
H         -6.16141       -2.79221        3.05944
H         -6.09485       -4.55638        2.74612
H         -4.39612       -5.09160       -0.88857
H         -5.21321       -6.60272       -0.35571
H         -5.88298       -5.03361        0.14702
H         -1.27939       -2.68636       -1.51957
C         -3.24445       -1.79069       -1.29986
C         -2.26624       -2.95733       -1.09008
C         -3.42072       -1.44351       -2.79045
H         -4.23476       -2.06487       -0.88785
H         -2.86368       -0.89879       -0.76617
H         -2.43994       -1.16334       -3.23073
H         -3.81704       -2.32618       -3.34239
C         -4.39301       -0.27629       -2.98259
H         -2.65510       -3.83252       -1.64913
H         -5.39756       -0.53564       -2.58486
H         -4.01804        0.62933       -2.46028
H         -4.49451       -0.04092       -4.06414
C         -0.24284        1.88181        4.03994
C          0.63769        1.79626        2.97900
C          0.23659        0.72249        2.21239
C         -0.87370        0.19132        2.83755
N         -1.16639        0.90628        3.95882
C         -1.66307       -1.00871        2.34491
N         -0.87390       -2.26893        2.21956
C         -0.30719       -2.78540        3.52047
H          1.47352        2.45338        2.78091
H         -0.22067        2.62997        4.82116
H          0.69838        0.37163        1.29843
H         -2.53299       -1.15261        3.00809
H         -2.05535       -0.75018        1.34425
C         -1.42461       -3.06848        4.54781
C          0.41664       -4.08912        3.24400
C          0.76116       -1.85339        4.15713
H         -2.17773       -3.75932        4.11199
H         -1.00097       -3.53805        5.46152
H         -1.93475       -2.13907        4.86961
H          1.19977       -3.95568        2.46331
H          0.90126       -4.49140        4.16073
H         -0.34441       -4.81761        2.96255
H          1.54866       -1.58553        3.41968
H          0.34272       -0.94445        4.61194
H          1.25470       -2.35517        5.01741
Na        -6.18041        4.62418        4.62999
Mg        -4.32913        1.90253        4.26436
H          0.48183       -4.98327        0.08592
C         -0.62721       -6.74298       -0.49040
C         -0.43836       -5.50753        0.41330
C         -0.77378       -6.47634       -1.99109
H          0.26439       -7.40190       -0.36204
H         -1.50463       -7.32558       -0.14228
H         -0.88032       -7.46554       -2.49096
H         -1.68921       -5.88824       -2.19495
C          0.44709       -5.78175       -2.59464
H         -0.20790       -6.00209        1.36731
H          0.54730       -4.75075       -2.19979
H          1.37338       -6.35503       -2.37029
H          0.33053       -5.72252       -3.69686
C         -5.16982       -0.88055        7.53202
C         -6.31923       -0.68899        8.27303
C         -6.74945        0.59195        8.00715
C         -5.84907        1.13049        7.10639
N         -4.87945        0.22902        6.82624
C         -5.92927        2.50850        6.52750
N         -5.99725        2.53771        5.05130
C         -7.14293        1.89642        4.36324
H         -6.79116       -1.40143        8.93448
H         -4.57411       -1.78248        7.51400
H         -7.62512        1.08070        8.41509
H         -6.79194        3.06017        6.95842
H         -5.01482        3.05945        6.83555
C         -8.49067        2.40976        4.91562
C         -7.05445        2.27309        2.87750
C         -7.08256        0.35168        4.43952
H         -8.54477        3.51633        4.82176
H         -9.33831        1.96798        4.35160
H         -8.62364        2.13805        5.98284
H         -6.09330        1.91480        2.44210
H         -7.88708        1.81274        2.30160
H         -7.10783        3.37276        2.74187
H         -6.09059       -0.01220        4.09105
H         -7.27823       -0.04031        5.45104
H         -7.86583       -0.10200        3.79701
