96
speciation1718.ct
Na        -2.45246       -2.08261       -4.56300
Mg         2.68878        1.23873       -2.08009
C          1.09637        2.44361        0.41055
C         -0.46624        1.72319       -1.19419
O          0.93943        1.95825       -0.93274
C          0.53539        1.55344        1.53986
C         -1.39983        2.94296       -1.21595
H          2.15820        2.58656        0.59124
H          0.67894        3.46386        0.52879
H         -0.61447        1.18121       -2.14322
H         -0.90374        1.12052       -0.40134
H         -1.23334        3.52014       -2.12901
H         -2.46659        2.61698       -1.23080
H         -1.30267        3.56222       -0.30337
H          0.93169        0.52869        1.41623
H          0.81700        1.96398        2.53122
H         -0.57706        1.53658        1.57333
H         -1.27377       -0.14240       -5.87183
C         -2.25598        1.77534       -5.88963
C         -1.44367        0.71534       -5.17473
C         -1.53001        2.26273       -7.14031
H         -3.24348        1.35003       -6.18130
H         -2.42283        2.62666       -5.19784
H         -0.54516        2.68305       -6.85248
H         -1.37260        1.41825       -7.85053
C         -2.32459        3.34600       -7.85187
H         -2.00756        0.36491       -4.29321
H         -3.30377        2.95408       -8.20511
H         -2.50007        4.20695       -7.17144
H         -1.72683        3.68192       -8.72250
C          3.20968       -2.21404       -1.59555
C          2.74185       -3.52577       -1.83382
C          1.68014       -3.40585       -2.66214
C          1.48032       -2.03515       -2.82921
N          2.45367       -1.24705       -2.22339
C          0.20542       -1.58136       -3.45864
N         -0.95581       -2.41510       -3.05835
C         -1.45167       -2.59881       -1.64990
H          3.07376       -4.46582       -1.41509
H          4.03369       -2.02411       -0.93961
H          1.02050       -4.22879       -2.98185
H          0.29529       -1.71463       -4.56432
H          0.02258       -0.52961       -3.24338
C         -2.13837       -1.36269       -1.06987
C         -2.55890       -3.71695       -1.76014
C         -0.27235       -2.76986       -0.60096
H         -3.07575       -0.98981       -1.50770
H         -2.33839       -1.52394        0.02519
H         -1.39422       -0.60780       -1.14649
H         -2.24947       -4.77521       -1.64121
H         -3.47482       -3.51576       -1.15808
H         -2.95774       -3.71258       -2.80848
H          0.34849       -3.67117       -0.67705
H          0.38660       -1.86675       -0.67565
H         -0.54427       -2.72359        0.47122
Mg         0.44347        1.38698       -4.58835
C          5.95603        2.87931       -2.00798
C          5.07306        2.26983        0.06123
O          4.76454        2.31540       -1.34079
C          7.27074        2.03282       -1.99334
C          5.71567        3.53252        0.77660
H          5.75688        3.21257       -3.02910
H          6.25666        3.89137       -1.60981
H          4.15182        2.09161        0.62772
H          5.75134        1.41684        0.28052
H          5.13231        4.47650        0.60130
H          5.80102        3.39756        1.86784
H          6.76974        3.72952        0.45571
H          7.11526        1.05080       -2.46937
H          8.08502        2.54976       -2.56709
H          7.71087        1.88686       -0.97676
C         -0.21068        5.83446       -2.32870
C          0.64652        5.40461       -1.34438
C          1.51272        4.48792       -1.92297
C          1.19255        4.32827       -3.19749
N          0.09850        5.16631       -3.53531
C          2.03946        3.56883       -4.19355
N          2.23733        2.06047       -4.10498
C          3.12779        1.61801       -5.28898
H          0.64622        5.73462       -0.31064
H         -1.00894        6.56113       -2.18401
H          2.35564        4.02158       -1.44665
H          2.98586        4.10527       -4.06296
H          1.62554        3.87284       -5.17198
C          4.53627        2.28624       -5.20621
C          3.42421        0.09503       -5.35775
C          2.51227        1.93470       -6.69732
H          5.11300        1.79709       -4.40083
H          5.10119        2.16637       -6.14898
H          4.54262        3.36740       -5.04073
H          2.50685       -0.51838       -5.44564
H          4.02594       -0.11945       -6.28289
H          4.05125       -0.27039       -4.52071
H          1.64737        1.27110       -6.92130
H          2.22122        2.97551       -6.89729
H          3.26079        1.72217       -7.50124
