80
speciation952.ct
Na         0.92984        0.06552        0.02801
Mg         0.33479       -0.24184        4.15127
H          2.51348        0.92981        4.69675
C          1.41309        1.10990        6.55451
C          1.48514        1.17896        5.03460
C          2.38832        2.11144        7.18350
H          0.37377        1.32986        6.88056
H          1.67800        0.07901        6.87629
H          3.42379        1.89149        6.84073
H          2.11902        3.14152        6.86427
C          2.35445        2.03723        8.70611
H          1.20358        2.18584        4.66226
H          1.33292        2.25938        9.08053
H          2.65924        1.02537        9.04896
H          3.06050        2.78296        9.12879
C         -0.54829       -2.82770        3.37598
C         -1.28401       -3.57640        2.48583
C         -1.87927       -2.68157        1.61692
C         -1.48133       -1.41460        2.02133
N         -0.65957       -1.52031        3.09001
C         -1.91588       -0.10891        1.41689
N         -1.44016        0.06552        0.02801
C         -1.83684        1.34071       -0.61370
H         -1.37588       -4.65178        2.48263
H          0.04361       -3.21195        4.19527
H         -2.53228       -2.93338        0.79342
H         -1.51230        0.69501        2.06106
H         -3.02404       -0.09237        1.45859
C         -1.30675        2.57276        0.16068
C         -1.20454        1.36039       -2.01608
C         -3.37058        1.44430       -0.75621
H         -0.20383        2.51767        0.28043
H         -1.55515        3.51017       -0.38179
H         -1.77005        2.66256        1.16565
H         -1.55335        0.49373       -2.61589
H         -1.47082        2.29393       -2.55822
H         -0.09640        1.31011       -1.93978
H         -3.77631        0.54405       -1.26459
H         -3.86328        1.54737        0.23271
H         -3.64943        2.34209       -1.34873
Na        -2.15782       -1.53992       -1.18725
Mg         3.96316        1.81216       -0.65707
H          5.70792        3.50109       -1.65685
C          4.47657        4.68763       -0.30228
C          4.64315        3.60269       -1.35936
C          3.00060        4.83123        0.08861
H          5.07768        4.42088        0.59281
H          4.85049        5.65045       -0.71399
H          2.39640        5.08514       -0.81039
H          2.62985        3.86921        0.50573
C          2.80804        5.93230        1.12779
H          4.04420        3.86633       -2.25718
H          3.38710        5.70248        2.04707
H          3.14273        6.91006        0.71947
H          1.73247        6.00993        1.39387
C          7.28428       -0.43587        2.22787
C          7.27544        0.80570        1.63198
C          5.96249        1.09424        1.29485
C          5.19882        0.06266        1.66051
N          5.97507       -0.94548        2.27588
C          3.70823       -0.05388        1.44467
N          3.29984        0.06552        0.02801
C          3.74017       -0.99117       -0.92973
H          8.14415        1.42702        1.45759
H          8.16140       -0.95048        2.60111
H          5.62163        1.98943        0.80120
H          3.22836        0.77345        2.00691
H          3.32938       -1.00035        1.88002
C          3.25108       -2.38547       -0.49189
C          3.10975       -0.65303       -2.29222
C          5.27323       -1.03034       -1.14791
H          2.14774       -2.38976       -0.36793
H          3.52421       -3.14891       -1.25307
H          3.72319       -2.69540        0.46308
H          3.45893        0.34310       -2.64289
H          3.39657       -1.40660       -3.05958
H          2.00252       -0.63150       -2.22254
H          5.65780       -0.03390       -1.45503
H          5.82541       -1.38389       -0.26129
H          5.53082       -1.75901       -1.94753
