110
speciation2026.ct
Na         0.95112        0.61274        0.54973
Mg         4.70749        4.14344       -0.21615
C          0.28650        0.32149        3.83892
C         -1.18675        1.78219        2.75967
O          0.06077        1.13916        2.68676
C         -0.70159       -0.81876        4.01770
C         -1.38536        2.75085        3.95058
H          1.26899       -0.13384        3.75566
H          0.39785        0.92850        4.75883
H         -1.24442        2.47091        1.92359
H         -2.04203        1.06392        2.69488
H         -0.65662        3.58610        3.88659
H         -2.41035        3.18429        3.91782
H         -1.29373        2.25869        4.94157
H         -0.79122       -1.36261        3.06870
H         -0.32715       -1.50673        4.80451
H         -1.70223       -0.45245        4.31977
H          5.98440        3.11443       -2.16560
C          6.01345        5.26615       -2.51278
C          5.33844        3.99772       -2.03208
C          7.33681        5.48233       -1.78007
H          6.20092        5.15042       -3.60033
H          5.34068        6.13825       -2.35037
H          7.15167        5.65002       -0.69554
H          7.97484        4.57932       -1.89767
C          8.08095        6.67515       -2.36861
H          4.37622        3.85527       -2.56732
H          8.27247        6.50268       -3.45026
H          7.48369        7.60337       -2.24824
H          9.05559        6.79942       -1.85318
C          3.94108        6.43024        0.82927
C          2.96014        7.29818        1.20896
C          1.76627        6.71956        0.84640
C          2.03914        5.46167        0.24113
N          3.39349        5.34025        0.23933
C          0.89982        4.55851       -0.38642
N          0.68867        3.02678       -0.58511
C         -0.61224        2.81252       -1.34441
H          3.12333        8.25100        1.70108
H          5.00420        6.56829        0.99092
H          0.80252        7.17776        0.97089
H          0.01148        4.96049        0.13216
H          0.88131        5.02425       -1.38078
C         -0.63857        3.52472       -2.73083
C         -0.73681        1.32221       -1.60194
C         -1.90727        3.25722       -0.61018
H          0.21158        3.23684       -3.37626
H         -1.55207        3.22542       -3.28247
H         -0.70781        4.62867       -2.65708
H         -0.83235        0.81108       -0.62273
H         -1.65337        1.08574       -2.18145
H          0.14895        0.92562       -2.14424
H         -2.18224        2.58701        0.20871
H         -1.92207        4.31158       -0.27809
H         -2.76741        3.14028       -1.28036
Na         2.00142        2.79106       -2.26542
Mg         4.03282       -0.76738       -1.72009
C         -1.11348       -1.97983       -0.75156
C          0.26945       -2.72147        1.00613
O         -0.06785       -1.59523        0.16066
C         -2.42688       -2.42115       -0.07358
C          0.66523       -4.04031        0.27347
H         -1.34464       -1.14682       -1.42014
H         -0.75935       -2.77148       -1.45049
H          1.07777       -2.42007        1.69186
H         -0.54159       -2.97851        1.71138
H          1.42461       -3.87841       -0.51759
H         -0.21828       -4.53451       -0.19452
H          1.06681       -4.78886        0.99779
H         -2.82430       -1.60415        0.56168
H         -3.17488       -2.67759       -0.85291
H         -2.30952       -3.33786        0.53781
H          4.22407       -2.63866       -3.48348
C          6.22573       -1.80577       -3.56916
C          4.71281       -1.64303       -3.43253
C          6.96156       -0.45855       -3.58479
H          6.60605       -2.44478       -2.74353
H          6.43170       -2.32074       -4.53288
H          8.04507       -0.64332       -3.74704
H          6.58047        0.17034       -4.41695
C          6.81214        0.29615       -2.27624
H          4.32558       -1.02444       -4.26994
H          5.74100        0.49388       -2.06714
H          7.28210       -0.29884       -1.47708
H          7.35432        1.25900       -2.31657
C          3.54219        3.92000        2.59633
C          2.71498        2.97606        3.13668
C          2.65967        1.98208        2.19752
C          3.45464        2.30050        1.15456
N          3.92644        3.51315        1.35823
C          3.81339        1.49348       -0.07311
N          3.36949        0.08682       -0.04963
C          4.15850       -0.79563        0.96354
H          2.18758        3.01052        4.08367
H          3.76221        4.87729        3.04807
H          2.14263        1.09691        2.23327
H          4.90575        1.54825       -0.21154
H          3.39687        1.98931       -0.95219
C          3.87225       -0.56560        2.46523
C          3.83166       -2.26613        0.70073
C          5.70108       -0.68780        0.89144
H          2.82414       -0.78677        2.65731
H          4.41360       -1.26842        3.12998
H          4.26462        0.40297        2.83372
H          4.30058       -2.63736       -0.22821
H          4.16364       -2.91902        1.54456
H          2.76595       -2.36639        0.56796
H          6.06128       -1.11127       -0.04818
H          6.08654        0.33599        1.07684
H          6.17402       -1.31387        1.68620
