95
speciation1197.ct
Na         1.04946        0.05009       -0.07103
Mg         4.82082        0.04683       -4.71179
C         -1.81395       -1.09347        0.56638
C         -1.86127        0.29960       -1.33216
O         -1.27054        0.05009       -0.07103
C         -1.54259       -2.41566       -0.16222
C         -1.20334        1.51259       -1.97359
H         -1.33964       -1.15837        1.56835
H         -2.90291       -0.95949        0.75232
H         -1.72593       -0.54542       -2.03755
H         -2.94204        0.53090       -1.20210
H         -0.13013        1.30364       -2.17168
H         -1.70485        1.73828       -2.93951
H         -1.28848        2.39713       -1.30874
H         -0.45522       -2.54072       -0.34584
H         -1.90252       -3.25825        0.46490
H         -2.09334       -2.47510       -1.12294
H          6.44299        2.13054       -5.36526
C          7.06801        2.00910       -3.28798
C          5.97406        1.92372       -4.38123
C          7.77301        3.39069       -3.24736
H          6.61031        1.82352       -2.29540
H          7.83064        1.22513       -3.48090
H          8.24270        3.60667       -4.23047
H          7.03016        4.18708       -3.02630
C          8.87071        3.44593       -2.17311
H          5.21728        2.71325       -4.18039
H          8.44537        3.25760       -1.16445
H          9.65970        2.69410       -2.38087
H          9.34475        4.45273       -2.16745
C          3.71068       -2.59107       -3.71745
C          3.14686       -3.19106       -2.60789
C          3.10160       -2.23718       -1.62840
C          3.66533       -1.09182       -2.16720
N          4.01417       -1.29714       -3.45037
C          3.85992        0.21300       -1.45078
N          3.41946        0.05009       -0.07103
C          3.40424        1.21140        0.85694
H          2.79713       -4.21071       -2.52350
H          3.87369       -3.08396       -4.66409
H          2.71219       -2.38030       -0.63100
H          3.28619        1.00904       -1.96690
H          4.94410        0.45108       -1.46471
C          2.50399        2.36877        0.34050
C          2.80824        0.69056        2.18436
C          4.80445        1.77112        1.13937
H          1.45539        2.07085        0.15818
H          2.44976        3.17916        1.09876
H          2.90092        2.80791       -0.59569
H          3.43002       -0.13875        2.58504
H          2.75217        1.49052        2.95314
H          1.78158        0.29147        2.03981
H          5.46180        0.99730        1.58522
H          5.26501        2.17030        0.21449
H          4.72227        2.61341        1.86552
Na         4.20946       -1.94730        0.93060
Mg         7.15105       -3.14316        4.34106
H          3.47486       -1.24066       -6.71632
C          4.21936        0.47447       -7.80028
C          3.63239       -0.15327       -6.53645
C          5.59535       -0.12061       -8.11313
H          3.53453        0.30100       -8.66338
H          4.30742        1.56893       -7.63650
H          6.25211        0.02368       -7.22818
H          5.50016       -1.20477       -8.32310
C          6.23604        0.57459       -9.31189
H          2.63101        0.29619       -6.36227
H          5.62553        0.42386      -10.22761
H          6.33685        1.66435       -9.11671
H          7.24862        0.15282       -9.48350
C          4.88692       -1.59600        5.42537
C          3.51091       -1.48810        5.38741
C          3.06483       -2.46858        4.52676
C          4.19305       -3.12950        4.07051
N          5.30191       -2.59541        4.62639
C          4.20363       -4.28717        3.12180
N          4.99945       -3.94469        1.93223
C          5.11155       -4.99870        0.89673
H          2.90110       -0.78128        5.92873
H          5.55360       -0.97389        6.01259
H          2.04029       -2.67617        4.25842
H          3.15601       -4.51140        2.84078
H          4.64410       -5.15377        3.65086
C          3.72345       -5.45125        0.38935
C          5.89648       -4.39724       -0.28058
C          5.88803       -6.22494        1.41996
H          3.12586       -4.58168        0.05242
H          3.82874       -6.15821       -0.46028
H          3.15339       -5.98135        1.18037
H          6.91014       -4.08303        0.04881
H          6.00832       -5.13616       -1.10404
H          5.37718       -3.50468       -0.68257
H          6.89358       -5.92371        1.78302
H          5.34750       -6.73064        2.24567
H          6.01745       -6.97447        0.60853
