81
speciation395.ct
Na         1.23423        0.07013       -0.01338
Mg        -1.79606       -0.14906        2.13317
C         -0.29984       -2.21493       -1.16735
C         -0.28995       -0.40810       -2.72406
O         -0.21249       -0.80699       -1.35632
C          0.73178       -3.04072       -1.95121
C         -1.65004       -0.73238       -3.37586
H         -0.12984       -2.40695       -0.08860
H         -1.33216       -2.58010       -1.36210
H         -0.17877        0.69354       -2.76846
H          0.54296       -0.82285       -3.32729
H         -2.47670       -0.23455       -2.82619
H         -1.65950       -0.37267       -4.42752
H         -1.84689       -1.82425       -3.41078
H          1.75757       -2.68116       -1.72875
H          0.64982       -4.10883       -1.65951
H          0.54818       -2.99618       -3.04523
H         -3.86603       -0.39254        0.49850
C         -4.47621       -1.43512        2.31868
C         -3.42311       -1.04148        1.28121
C         -5.04966       -0.21994        3.05670
H         -5.29663       -1.97767        1.80138
H         -4.00895       -2.12088        3.05821
H         -4.23502        0.30230        3.60246
H         -5.50590        0.48785        2.33077
C         -6.12196       -0.64982        4.05986
H         -3.02441       -1.96296        0.80845
H         -6.97612       -1.12622        3.53175
H         -5.70309       -1.37186        4.79319
H         -6.50038        0.23580        4.61292
C         -1.77627       -1.09572        5.05911
C         -0.80701       -0.88281        6.02741
C          0.17430       -0.11554        5.43881
C         -0.24328        0.10384        4.14251
N         -1.40560       -0.49640        3.91239
C          0.51574        0.84251        3.08702
N         -0.14624        0.89816        1.74128
C         -0.70930        2.23747        1.40132
H         -0.80800       -1.25457        7.04271
H         -2.67869       -1.67218        5.18288
H          1.09418        0.23026        5.89446
H          1.37324        0.18989        3.03184
H          0.82359        1.83199        3.47497
C          0.38578        3.33160        1.27422
C         -1.41048        2.13159        0.03833
C         -1.76110        2.67768        2.44882
H          1.13923        3.04889        0.50911
H         -0.06921        4.29726        0.96417
H          0.91424        3.54021        2.22482
H         -2.21248        1.35525        0.06583
H         -1.86490        3.10491       -0.24785
H         -0.67641        1.85398       -0.74431
H         -2.57179        1.92280        2.52468
H         -1.31276        2.80992        3.45533
H         -2.22113        3.64854        2.16309
Mg         7.13095        1.57679       -2.59115
C          7.66799       -1.21963       -1.95126
C          7.09438       -2.40261       -1.54776
C          5.74336       -2.15650       -1.40514
C          5.54302       -0.82689       -1.72760
N          6.72951       -0.25873       -2.06636
C          4.21651       -0.09654       -1.69945
N          3.59125       -0.07262       -0.35092
C          4.32499        0.70235        0.68990
H          7.60876       -3.33878       -1.37275
H          8.72550       -1.06200       -2.14705
H          4.99136       -2.86783       -1.09466
H          3.53821       -0.62898       -2.39636
H          4.33141        0.93281       -2.09553
C          4.62714        2.15245        0.25375
C          3.40267        0.76947        1.86713
C          5.60297       -0.00852        1.19832
H          3.69193        2.65844       -0.07258
H          5.05442        2.72934        1.10288
H          5.36429        2.18804       -0.57194
H          3.18519       -0.27777        2.17633
H          3.83598        1.32040        2.72906
H          2.49204        1.30173        1.53654
H          5.37033       -1.05381        1.50150
H          6.42236       -0.01603        0.46538
H          6.00885        0.52008        2.08907
