80
speciation923.ct
Na         3.38417       -0.38693        2.54970
Mg         2.25746        4.63743       -0.87995
H          3.85279        6.86438       -0.23792
C          4.60888        6.51466       -2.22758
C          4.04903        5.99408       -0.89909
C          3.60642        7.42594       -2.92981
H          5.54637        7.09239       -2.04125
H          4.86419        5.65094       -2.87918
H          2.66626        6.86275       -3.10216
H          3.38846        8.31239       -2.29230
C          4.15818        7.90023       -4.27088
H          4.87961        5.42892       -0.42497
H          5.07807        8.50727       -4.12527
H          4.40119        7.02244       -4.90545
H          3.39824        8.52068       -4.79017
C          5.36484       -0.82672        0.38218
C          6.03503       -0.40966       -0.74204
C          5.58965        0.86590       -1.01648
C          4.64480        1.17555       -0.05415
N          4.53170        0.13645        0.81734
C          3.83573        2.46917       -0.00103
N          2.94321        2.71412       -1.18177
C          1.86791        1.66390       -1.33763
H          6.76164       -0.98245       -1.30208
H          5.46932       -1.79453        0.85869
H          5.91229        1.48398       -1.83795
H          3.24179        2.50609        0.93431
H          4.57047        3.28974        0.06774
C          0.89979        1.71714       -0.13470
C          1.19928        1.92259       -2.70127
C          2.33683        0.17099       -1.43635
H          0.66060        2.75272        0.15122
H         -0.02132        1.12373       -0.31118
H          1.38714        1.26239        0.75987
H          1.94193        1.72078       -3.50834
H          0.35577        1.21757       -2.87738
H          0.84879        2.96174       -2.82507
H          3.18311        0.03660       -2.12705
H          2.59703       -0.28431       -0.46734
H          1.51011       -0.48649       -1.78729
Na         4.25321        2.32254       -3.11761
Mg         5.29390        3.41767       -6.34853
H          0.29749        6.64042       -0.55584
C         -0.94234        4.87884       -0.34396
C          0.22124        5.63589       -1.02754
C         -2.32993        5.53965       -0.51500
H         -1.00803        3.86765       -0.79277
H         -0.71871        4.78622        0.74086
H         -2.34358        6.56978       -0.09539
H         -2.57781        5.59617       -1.59670
C         -3.42236        4.71659        0.18529
H         -0.02692        5.78561       -2.10017
H         -3.40024        3.65968       -0.15776
H         -3.28060        4.73771        1.28729
H         -4.42930        5.12977       -0.04383
C          4.55388        6.10129       -7.97700
C          5.27065        6.51020       -9.05217
C          6.16807        5.45865       -9.24598
C          5.93618        4.60268       -8.17240
N          5.02459        4.90440       -7.64360
C          6.35290        2.97409       -6.68535
N          5.56320        1.93095       -5.05345
C          5.12523        0.64479       -5.66152
H          5.21383        7.48081       -9.52532
H          3.85985        6.67865       -7.35777
H          6.95563        5.44582       -9.99134
H          7.10530        2.34983       -7.20400
H          7.15852        3.55059       -6.15931
C          6.33388       -0.13055       -6.24437
C          4.48556       -0.26976       -4.61298
C          4.07951        0.91363       -6.76541
H          7.09845       -0.30092       -5.45631
H          6.01520       -1.11316       -6.65026
H          6.82438        0.35762       -7.09647
H          3.57706        0.20582       -4.21554
H          4.17092       -1.22802       -5.08879
H          5.19567       -0.51093       -3.79520
H          3.19988        1.44448       -6.34258
H          4.48761        1.53311       -7.58971
H          3.73631       -0.03740       -7.22595
