110
speciation2022.ct
Na        -3.99866       -2.70500       -2.60748
Mg        -1.32982        0.74045        0.82263
C         -4.24682       -6.18149       -2.18296
C         -2.88666       -4.90356       -3.61505
O         -3.98847       -4.86423       -2.77173
C         -3.49152       -6.48372       -0.87808
C         -2.99055       -3.89245       -4.76583
H         -5.33739       -6.26442       -1.99322
H         -4.05738       -7.01660       -2.89702
H         -2.16730       -4.36985       -3.06933
H         -2.08987       -5.66940       -3.47666
H         -2.97392       -2.85810       -4.35863
H         -2.08591       -3.92566       -5.39480
H         -3.91438       -3.99588       -5.36988
H         -4.15493       -7.06895       -0.19200
H         -2.61473       -7.15064       -1.06071
H         -3.16040       -5.57826       -0.33978
H          1.50878        0.93915        0.17902
C          1.33027        2.92487        0.80613
C          0.72396        1.71978        0.12183
C          1.54685        2.67658        2.28666
H          2.32011        3.24667        0.29978
H          0.65525        3.78123        0.64136
H          1.36384        3.63988        2.80874
H          0.77094        1.96142        2.64648
C          2.92877        2.15785        2.70919
H          0.59892        1.98653       -0.95367
H          3.06804        1.09215        2.43901
H          3.00682        2.24658        3.81529
H          3.76770        2.75588        2.27926
C         -0.89007       -2.98062       -1.54723
C          0.28360       -2.37311       -1.28760
C          0.08677       -1.03328       -1.48223
C         -1.23429       -0.88090       -1.80628
N         -1.84266       -2.09007       -1.93421
C         -1.86954        0.44086       -2.08899
N         -2.50964        1.10585       -0.91338
C         -3.20945        2.42104       -1.38966
H          1.23633       -2.82777       -1.00610
H         -1.01557       -4.05016       -1.46812
H          0.82827       -0.27414       -1.39542
H         -1.08955        1.09416       -2.51792
H         -2.61011        0.23448       -2.86468
C         -4.19647        2.19921       -2.54566
C         -4.05093        3.18725       -0.31385
C         -2.16035        3.48993       -1.83729
H         -4.92446        1.42487       -2.26999
H         -4.73623        3.12408       -2.81312
H         -3.69356        1.89803       -3.50737
H         -3.46306        3.57237        0.50611
H         -4.51535        4.08413       -0.75813
H         -4.90284        2.55426       -0.06831
H         -1.45671        3.72377       -1.00322
H         -1.57747        3.16942       -2.72512
H         -2.66306        4.42527       -2.13015
Na        -1.49459       -2.84441        6.77003
Mg        -2.96246       -0.37411        0.57480
C         -6.77981       -1.43715       -2.97329
C         -5.47440       -0.63577       -4.73545
O         -5.44549       -1.26349       -3.44756
C         -7.53354       -0.10666       -2.75615
C         -4.13438       -0.58833       -5.45614
H         -7.36599       -2.10869       -3.63995
H         -6.72688       -1.93505       -1.98610
H         -6.20952       -1.11070       -5.42807
H         -5.72463        0.43527       -4.58851
H         -3.86231       -1.56712       -5.88398
H         -4.21418        0.12499       -6.30655
H         -3.33694       -0.21911       -4.79678
H         -7.73601        0.41612       -3.71757
H         -8.51937       -0.28984       -2.28483
H         -6.95791        0.56893       -2.09471
H         -5.18761       -1.52063       -0.36162
C         -4.56925       -3.24280        0.81389
C         -4.27229       -1.94119        0.09354
C         -5.52089       -3.01033        1.96465
H         -5.04223       -3.94763        0.09076
H         -3.61807       -3.69336        1.17473
H         -5.03737       -2.32587        2.67602
H         -6.46326       -2.56190        1.57669
C         -5.83183       -4.31649        2.67214
H         -3.63585       -2.27952       -0.68181
H         -6.31287       -5.03113        1.97018
H         -4.89418       -4.76283        3.06721
H         -6.52212       -4.11286        3.51589
C         -0.37616       -4.29325        4.32207
C         -0.21809       -4.28930        2.94713
C         -0.81520       -3.13825        2.47774
C         -1.31608       -2.47533        3.57171
N         -1.04521       -3.19449        4.69413
C         -2.08848       -1.18678        3.68825
N         -2.41003       -0.23963        2.55501
C         -3.33823        0.80414        3.11421
H          0.28170       -5.06699        2.38905
H         -0.02756       -5.05132        5.01503
H         -0.88014       -2.82880        1.44298
H         -1.55568       -0.61646        4.47324
H         -3.02988       -1.58584        4.10703
C         -2.54383        1.86602        3.89887
C         -3.95451        1.42753        1.92954
C         -4.55119        0.33397        3.98677
H         -1.69395        2.24593        3.29434
H         -3.20250        2.72183        4.16176
H         -2.15687        1.45332        4.85127
H         -4.56475        0.69353        1.35768
H         -4.59503        2.29134        2.21482
H         -3.08368        1.73285        1.34351
H         -5.21865       -0.35313        3.43686
H         -4.26544       -0.11301        4.95871
H         -5.18441        1.20975        4.25443
