81
speciation401.ct
Na         0.78140       -0.46758       -0.05316
Mg        -2.20279        0.42402        1.55929
C         -0.24191        0.47163       -2.73303
C         -1.88173       -0.81735       -1.59123
O         -0.49459       -0.57225       -1.79592
C         -0.95911        1.80484       -2.47511
C         -2.57754       -1.40308       -2.83357
H          0.83167        0.68875       -2.67324
H         -0.41778        0.12149       -3.77425
H         -1.98194       -1.56827       -0.78228
H         -2.41413        0.08574       -1.23428
H         -2.11048       -2.36766       -3.12345
H         -3.65162       -1.58209       -2.61157
H         -2.53636       -0.70897       -3.69929
H         -0.75855        2.15105       -1.44107
H         -0.58320        2.56843       -3.18968
H         -2.05293        1.72278       -2.64488
H         -4.79822        1.08230        1.75265
C         -4.70029       -1.07759        1.55854
C         -4.20844        0.31960        1.20144
C         -4.45982       -1.38609        3.03778
H         -5.78633       -1.14886        1.32976
H         -4.15252       -1.81499        0.93292
H         -3.37393       -1.31549        3.26052
H         -5.00701       -0.65024        3.66670
C         -4.93747       -2.79237        3.38973
H         -4.37566        0.49050        0.11776
H         -6.02359       -2.89585        3.18130
H         -4.37885       -3.54851        2.79745
H         -4.76205       -2.98691        4.46881
C          6.10065        4.36738        1.54244
C          5.58676        4.41346        2.85305
C          4.36361        3.74609        3.04515
C          3.93277        3.17982        1.85016
N          5.30016        3.67892        0.71767
C          1.62804        1.87695        1.90373
N         -0.24629        0.52588        1.90837
C         -0.81507        1.52078        2.89592
H          6.09307        4.93061        3.65580
H          7.03043        4.81817        1.22257
H          3.80949        3.68710        3.96734
H          1.34719        2.45737        1.00784
H          1.39928        2.61411        2.67160
C         -0.96695        2.87900        2.07145
C         -2.21640        1.45982        3.57158
C          0.07384        1.33205        4.19601
H         -2.00075        3.05215        1.70038
H         -0.62602        3.79583        2.58885
H         -0.59058        2.81302        1.03170
H         -2.39995        0.58912        4.22093
H         -2.27700        2.36616        4.23460
H         -3.06520        1.63124        2.90944
H          1.16438        1.17104        4.10985
H         -0.19489        0.34655        4.64132
H         -0.08456        2.12027        4.95764
Mg         4.43080        2.75333       -0.81452
C          3.29310        2.47008       -3.49823
C          3.00059        1.56656       -4.49907
C          3.08143        0.30606       -3.95106
C          3.43077        0.45182       -2.62111
N          3.56145        1.82774       -2.34671
C          3.78069       -0.85797       -1.75979
N          3.14729       -1.13497       -0.39308
C          3.69123       -0.26555        0.68103
H          2.81204        1.79486       -5.53948
H          3.38881        3.53871       -3.63124
H          2.97562       -0.63029       -4.48653
H          4.88288       -0.89625       -1.65355
H          3.54878       -1.73989       -2.38827
C          3.28728        1.03125        0.12865
C          3.04387       -0.58023        2.03619
C          5.24921       -0.27591        0.97081
H          2.30478        0.94138       -0.39245
H          3.14540        2.07326        0.15636
H          4.17342        1.10994       -0.44104
H          3.42073       -1.54003        2.43468
H          3.33220        0.20354        2.78181
H          1.94857       -0.65046        1.97402
H          5.59922       -1.22012        1.41856
H          5.88100       -0.04682        0.08578
H          5.48037        0.55733        1.68606
