83
speciation502.ct
Na         4.42300       -0.07505       -2.75211
Mg         4.18607        4.44802       -0.67897
C          4.86740       -2.57692       -4.48344
C          5.56100       -0.57488       -5.58382
O          4.58995       -1.21140       -4.76786
C          6.26250       -2.85959       -3.90665
C          5.53487       -1.08118       -7.02831
H          4.12808       -2.89820       -3.72011
H          4.67227       -3.21035       -5.37436
H          5.30507        0.50510       -5.61997
H          6.58039       -0.62312       -5.15248
H          4.52861       -0.92343       -7.47108
H          6.28124       -0.52034       -7.62976
H          5.79453       -2.15798       -7.08300
H          6.44618       -2.22584       -3.01456
H          6.32884       -3.92714       -3.61021
H          7.05785       -2.68805       -4.66140
C          2.86505        4.05050        1.90120
C          2.07909        3.17865        2.62930
C          1.89794        2.06349        1.84252
C          2.61407        2.29282        0.68367
N          3.17313        3.52089        0.70998
C          2.80839        1.34415       -0.44676
N          4.25245        1.08579       -0.69292
C          4.90584        0.27360        0.40250
H          1.69060        3.34200        3.62677
H          3.19609        5.02546        2.23391
H          1.34869        1.16905        2.09722
H          2.35969        1.77862       -1.32647
H          2.23537        0.41214       -0.30764
C          4.13213       -1.04013        0.71450
C          6.31346       -0.11303       -0.05315
C          5.07297        1.04258        1.74673
H          4.02618       -1.66817       -0.19495
H          4.66011       -1.63218        1.49482
H          3.12392       -0.84871        1.14194
H          6.93200        0.78660       -0.22506
H          6.82008       -0.72482        0.73286
H          6.27591       -0.71559       -0.98116
H          5.53485        2.02991        1.59263
H          4.13379        1.16518        2.30100
H          5.69926        0.46401        2.45873
Na         5.69313        5.06821        2.28737
C          5.10603        3.66459       -3.58291
C          2.81424        3.56768       -3.07452
O          4.13676        3.55439       -2.53579
C          5.00094        4.96063       -4.42030
C          2.48797        2.33491       -3.94895
H          6.10763        3.52970       -3.14032
H          5.10084        2.78021       -4.24976
H          2.09668        3.61662       -2.23737
H          2.59682        4.50199       -3.62556
H          2.65074        1.38163       -3.41064
H          1.42853        2.37857       -4.27122
H          3.10093        2.30243       -4.87092
H          4.90086        5.86229       -3.78099
H          5.89624        5.06818       -5.06495
H          4.12089        4.93033       -5.09366
C          1.93267        6.32799       -1.10107
C          1.83308        7.68456       -0.91495
C          3.06928        8.12724       -0.46257
C          3.86664        7.00292       -0.37815
N          3.17392        5.93639       -0.78633
C          5.30679        6.90869        0.08681
N          5.72195        5.48248        0.18011
C          7.06920        5.12987       -0.30501
H          0.95008        8.28982       -1.08923
H          1.14831        5.66176       -1.43221
H          3.34194        9.14136       -0.21003
H          5.39822        7.36247        1.09697
H          5.92265        7.50541       -0.60914
C          8.20707        5.84791        0.44390
C          7.21292        3.61708       -0.09581
C          7.17721        5.49130       -1.77943
H          8.18727        5.62576        1.52935
H          9.18837        5.51702        0.03199
H          8.14162        6.94798        0.30304
H          6.36845        3.07804       -0.57505
H          8.16969        3.23372       -0.50749
H          7.20283        3.39243        0.99325
H          6.19088        5.32315       -2.17891
H          7.34621        6.56992       -1.95645
H          7.96979        4.91781       -2.30348
