83
speciation338.ct
Na         0.96230        0.01923       -0.27544
Mg         0.13972        3.52180        0.03421
C         -1.19198       -2.10055       -0.15765
C          0.61963       -2.82296       -1.52765
O         -0.08346       -1.72791       -0.95817
C         -0.89916       -3.14845        0.92537
C         -0.19725       -3.57206       -2.59348
H         -1.54744       -1.18158        0.34519
H         -2.04765       -2.42047       -0.79625
H          1.50873       -2.42833       -2.05779
H          1.01281       -3.51904       -0.76217
H         -0.47594       -2.89097       -3.42481
H          0.40809       -4.40765       -3.01308
H         -1.11917       -4.01850       -2.16588
H         -0.02476       -2.83690        1.53153
H         -1.78341       -3.25785        1.58501
H         -0.70347       -4.14583        0.47741
C         -2.19415        5.41235        0.03628
C         -3.52004        5.05309       -0.14966
C         -3.57792        3.66434       -0.11176
C         -2.28775        3.23255        0.11474
N         -1.46744        4.29092        0.14741
C         -1.74629        1.79459        0.19147
N         -0.33610        1.72116        0.70505
C         -0.23154        1.62109        2.20587
H         -4.33969        5.72461       -0.36612
H         -1.78279        6.41125       -0.04560
H         -4.44968        3.04406       -0.27363
H         -1.77267        1.38012       -0.83671
H         -2.43827        1.17447        0.78170
C         -0.86490        0.31356        2.74455
C          1.24713        1.58276        2.61483
C         -0.87030        2.82878        2.92961
H         -0.39380       -0.56588        2.26686
H         -0.70261        0.22405        3.84141
H         -1.96142        0.26616        2.60710
H          1.73828        2.54122        2.37565
H          1.35471        1.43690        3.71463
H          1.75758        0.73737        2.11439
H         -0.37985        3.77543        2.61669
H         -1.95863        2.89832        2.73828
H         -0.74073        2.73491        4.03198
Na         3.22599        2.59892        0.87515
C          3.59740       -0.44604       -1.93351
C          4.20973        0.06350        0.30861
O          3.16055       -0.00111       -0.64987
C          4.36153       -1.78465       -1.92264
C          5.36479        1.03440       -0.04200
H          2.69361       -0.58394       -2.55551
H          4.18405        0.34094       -2.46701
H          3.78883        0.39147        1.27985
H          4.61628       -0.94731        0.51192
H          5.02832        2.08018       -0.10341
H          6.14677        0.98514        0.74595
H          5.85176        0.78836       -1.00449
H          3.78138       -2.55478       -1.37592
H          4.54163       -2.13044       -2.96144
H          5.35861       -1.67475       -1.44594
C         -1.23245        4.02825       -2.77965
C         -0.83882        3.63297       -4.03667
C          0.37966        2.99586       -3.88192
C          0.67503        3.05904       -2.54529
N         -0.31349        3.62428       -1.87289
C          1.87110        2.66058       -1.76351
N          1.99170        3.52673       -0.55251
C          2.55566        4.88734       -0.70934
H         -1.38307        3.80713       -4.95462
H         -2.13828        4.57392       -2.55198
H          0.98315        2.55701       -4.66129
H          2.77953        2.58310       -2.38203
H          1.63040        1.65309       -1.42246
C          1.64962        5.82294       -1.53457
C          2.68542        5.48574        0.70187
C          3.95409        4.82853       -1.35192
H          0.64846        5.91338       -1.06297
H          2.09080        6.84133       -1.58038
H          1.54131        5.47588       -2.58051
H          3.35503        4.86680        1.33563
H          3.10823        6.51218        0.65973
H          1.69096        5.53297        1.19753
H          4.62760        4.18637       -0.75267
H          3.90999        4.43592       -2.38778
H          4.40003        5.84251       -1.40737
