95
speciation1287.ct
Na         1.07925        0.03912       -0.04679
Mg         6.08095        4.36608       -3.14235
C         -1.71616        0.92737       -1.04067
C         -1.81060        0.31902        1.22411
O         -1.24075        0.03912       -0.04679
C         -1.41082        2.39997       -0.76937
C         -1.26465       -0.62805        2.28601
H         -1.21571        0.64013       -1.99078
H         -2.80527        0.79593       -1.20767
H         -1.57586        1.34377        1.57968
H         -2.91184        0.17036        1.17664
H         -0.18162       -0.44437        2.45317
H         -1.79873       -0.44599        3.24503
H         -1.41975       -1.68508        1.98932
H         -0.33179        2.52655       -0.55172
H         -1.72276        2.98213       -1.66094
H         -1.97479        2.82684        0.07428
H          6.59345        5.65418       -0.74881
C          6.56754        3.55729       -0.18768
C          6.03264        4.73354       -1.00835
C          8.04415        3.30816       -0.49407
H          6.45025        3.77831        0.89810
H          5.97568        2.64600       -0.42382
H          8.16197        3.09431       -1.57735
H          8.63699        4.21436       -0.23811
C          8.57970        2.12475        0.30864
H          4.97689        4.89890       -0.70306
H          8.50599        2.32805        1.39886
H          8.00220        1.20617        0.07020
H          9.64592        1.95197        0.05124
C          0.86704        2.84571       -5.06785
C          0.26192        3.63962       -4.22140
C          0.52341        3.12668       -2.89290
C          1.35564        1.96795       -2.89541
N          1.49520        1.85672       -4.38500
C          2.37673        1.10121       -1.24660
N          3.44925        0.03912       -0.04679
C          3.83974       -1.35080       -0.30902
H         -0.18526        4.55763       -4.63034
H          1.00897        3.01877       -6.16855
H          0.19426        3.80335       -2.11390
H          2.73961        2.07852       -0.89975
H          1.70774        1.68219       -0.59890
C          4.93831       -1.43163       -1.37267
C          4.43553       -1.89229        1.00572
C          2.62987       -2.19664       -0.70992
H          5.80194       -0.77899       -1.11046
H          5.30444       -2.47317       -1.49071
H          4.52995       -1.15838       -2.34262
H          3.68772       -1.84845        1.82595
H          4.77548       -2.94441        0.89158
H          5.31338       -1.27988        1.31539
H          1.86488       -2.17438        0.09474
H          2.18267       -1.81023       -1.64892
H          2.93689       -3.25354       -0.86640
Na         4.23924        1.37130       -1.84069
Mg         2.95813        1.25273       -6.05213
H          6.84237        5.51585       -5.55554
C          8.52658        6.12268       -4.36467
C          7.02251        5.85785       -4.51209
C          9.33476        4.84192       -4.58716
H          8.85332        6.88784       -5.11001
H          8.72031        6.52346       -3.34837
H          8.97633        4.06051       -3.88580
H          9.19199        4.48227       -5.63110
C         10.82436        5.07402       -4.33751
H          6.49175        6.82867       -4.39992
H         11.23094        5.83749       -5.03511
H         10.98533        5.41457       -3.29228
H         11.37928        4.12369       -4.48745
C          4.55528       -1.13219       -6.31598
C          5.44655       -1.82144       -5.53755
C          6.20614       -0.86609       -4.85641
C          5.75992        0.41795       -5.24794
N          4.72132        0.19168       -6.12305
C          6.09578        1.82383       -4.45862
N          5.02924        2.70348       -3.63460
C          3.84548        2.80767       -4.10230
H          5.43121       -2.90310       -5.39117
H          3.70979       -1.58108       -6.83500
H          6.88487       -1.12273       -4.05233
H          6.62504        2.44661       -5.19808
H          6.87811        1.54204       -3.72134
C          3.63331        1.08847       -3.94501
C          3.41799        3.86296       -2.98071
C          4.09633        3.68316       -5.41062
H          4.40364        0.48450       -3.48785
H          2.94226        0.46226       -3.39457
H          3.17753        0.41456       -4.63001
H          4.05357        4.78255       -2.99775
H          2.46605        4.37623       -3.01847
H          3.61990        3.52909       -1.95296
H          4.51676        4.68263       -5.10114
H          4.90895        3.34785       -6.08381
H          3.23160        3.95817       -6.02836
