68
speciation121.ct
Na         1.36967        1.76762        0.07194
Mg         3.37143        0.14358       -1.66389
C          5.75815        0.79273       -2.90099
C          3.90547        0.81838       -4.39520
O          4.44813        0.32415       -3.18775
C          5.88539        2.30850       -2.71536
C          2.49203        0.26155       -4.57833
H          6.02937        0.32472       -1.93125
H          6.51194        0.41849       -3.62747
H          3.86346        1.92886       -4.44153
H          4.51920        0.41637       -5.22591
H          2.20431        0.31624       -5.65021
H          1.74905        0.84140       -3.98787
H          2.44604       -0.80263       -4.26145
H          4.98794        2.70319       -2.23758
H          6.03115        2.83061       -3.68361
H          6.74779        2.54489       -2.05330
C         -1.61838        0.80059        0.29775
C         -2.25985       -0.41589        0.22490
C         -1.27805       -1.37435        0.03728
C         -0.07556       -0.68250        0.01624
N         -0.29703        0.61787        0.15464
C          1.30773       -1.25039       -0.13165
N          2.31496       -0.15580       -0.03414
C          3.21478       -0.18302        1.14779
H         -3.32656       -0.57548        0.29988
H         -2.08856        1.76456        0.43985
H         -1.42944       -2.43855       -0.06367
H          1.39999       -1.74582       -1.12020
H          1.43736       -2.01968        0.65117
C          4.03766       -1.48119        1.24526
C          4.19570        0.98767        0.98008
C          2.39628        0.03457        2.44385
H          4.63246       -1.63927        0.31939
H          4.74338       -1.42689        2.10663
H          3.41161       -2.37919        1.41296
H          3.65799        1.94526        0.86466
H          4.87875        1.06892        1.85458
H          4.81923        0.83637        0.07339
H          1.76187        0.93855        2.35843
H          1.74283       -0.83661        2.65606
H          3.07673        0.16732        3.31379
Na         3.13736        4.12096        1.69168
C          3.19440        7.63190       -1.84351
C          3.95428        7.40230       -0.71776
C          3.83919        6.06124       -0.40540
C          3.01451        5.50024       -1.29141
N          2.60281        6.43193       -2.26974
C          2.48622        4.09779       -1.21736
N          1.78976        3.84203        0.05752
C          0.50069        4.53553        0.31428
H          4.49902        8.15042       -0.15841
H          3.04671        8.59217       -2.31763
H          4.28152        5.57648        0.45158
H          3.32241        3.39496       -1.26685
H          1.83545        3.87263       -2.08657
C         -0.51845        4.27855       -0.81227
C         -0.06749        3.97628        1.63183
C          0.67336        6.05747        0.48977
H         -0.70129        3.19427       -0.94549
H         -1.48189        4.77551       -0.56989
H         -0.17163        4.70236       -1.77594
H          0.63597        4.14617        2.47497
H         -1.03554        4.46332        1.87856
H         -0.24144        2.88589        1.56092
H          1.40409        6.28928        1.29417
H          0.98051        6.54671       -0.44211
H         -0.29705        6.53667        0.72518
