95
speciation1283.ct
Na         3.20928       -5.60862        1.86469
Mg         0.13851        1.32691       -4.92789
C          2.46630       -5.54148        4.84152
C          3.81858       -3.67981        4.21878
O          3.58129       -5.07626        4.09193
C          1.14405       -4.80668        4.57990
C          4.29766       -3.26758        5.61040
H          2.31272       -6.60266        4.55395
H          2.70197       -5.56005        5.92662
H          4.65120       -3.41643        3.53654
H          2.94705       -3.07549        3.89511
H          5.24118       -3.79679        5.86001
H          4.49216       -2.17328        5.61548
H          3.53382       -3.47986        6.38421
H          0.91562       -4.79952        3.49368
H          0.32376       -5.32642        5.11810
H          1.17274       -3.76710        4.96703
H          1.38150        1.15519       -7.33583
C          0.53897        3.04868       -7.82604
C          0.43322        1.68887       -7.12356
C          1.66403        3.90935       -7.24834
H          0.74252        2.87092       -8.90964
H         -0.42845        3.58565       -7.74065
H          1.45335        4.09955       -6.17567
H          2.63710        3.37762       -7.33921
C          1.76998        5.24756       -7.98302
H         -0.36969        1.13404       -7.65140
H          2.03215        5.08991       -9.05205
H          0.80833        5.80061       -7.92553
H          2.56307        5.86858       -7.51548
C          2.02370       -1.64329       -0.12076
C          2.71289       -1.94226        1.03002
C          3.27055       -3.20070        0.85019
C          2.89432       -3.61377       -0.41484
N          2.13807       -2.63841       -1.01779
C          3.38726       -4.92880       -1.03841
N          2.82926       -6.15244       -0.41056
C          3.33381       -7.47518       -0.84646
H          2.82606       -1.30606        1.89599
H          1.48939       -0.72653       -0.31392
H          3.93283       -3.68875        1.50787
H          4.49521       -4.92584       -0.98706
H          3.10118       -4.93829       -2.05301
C          4.85254       -7.61648       -0.62418
C          2.61632       -8.53868        0.00616
C          2.99152       -7.74183       -2.32543
H          5.10671       -7.43828        0.44189
H          5.18473       -8.64252       -0.89749
H          5.42580       -6.91176       -1.25828
H          1.51494       -8.47676       -0.13591
H          2.94228       -9.56399       -0.27728
H          2.83354       -8.38963        1.08563
H          1.89537       -7.65932       -2.49428
H          3.51473       -7.03276       -2.99491
H          3.30863       -8.76712       -2.61870
Na         1.13470       -1.98919       -2.75715
Mg         0.89891       -6.15160       -0.69616
H         -1.01065        3.85258       -4.79436
C         -1.22112        3.24487       -2.73072
C         -1.23227        2.91797       -4.23438
C          0.14985        3.76107       -2.27973
H         -1.98768        4.02536       -2.51224
H         -1.48614        2.33063       -2.15881
H          0.91940        2.99683       -2.51442
H          0.39456        4.70019       -2.82414
C          0.18338        4.04503       -0.77614
H         -2.26455        2.60913       -4.50952
H         -0.54678        4.83775       -0.50474
H         -0.05142        3.12344       -0.20207
H          1.19912        4.38948       -0.48540
C          2.82236       -4.16636       -4.41837
C          3.72739       -3.95849       -5.42099
C          3.57155       -2.64490       -5.81930
C          2.55642       -2.12908       -5.03484
N          2.22741       -3.00864       -4.09898
C          1.83281       -0.80993       -5.19790
N          0.61358       -0.63136       -4.34471
C         -0.68207       -1.35925       -4.59242
H          4.41067       -4.70001       -5.80815
H          2.67131       -5.10624       -3.93453
H          4.11136       -2.15534       -6.61346
H          1.53159       -0.75180       -6.25780
H          2.54997        0.01409       -4.99398
C         -0.63348       -2.89779       -4.37385
C         -1.67565       -0.79249       -3.55849
C         -1.25709       -1.11644       -5.99545
H         -0.37965       -3.20794       -3.34070
H         -1.64316       -3.33692       -4.52274
H          0.03137       -3.39334       -5.10520
H         -1.83258        0.29199       -3.72224
H         -2.66615       -1.29357       -3.61512
H         -1.27860       -0.92102       -2.52685
H         -1.47493       -0.05368       -6.16371
H         -0.59284       -1.52651       -6.78043
H         -2.23719       -1.65874       -6.08668
