96
speciation1486.ct
Na         5.43628       -7.67900       -6.07571
Mg         8.21795       -0.69894       -1.39167
C          7.14162        2.24873       -1.95015
C          7.61084        1.05667       -3.79315
O          7.89622        1.11830       -2.39552
C          7.23823        2.52314       -0.46384
C          8.34675       -0.06033       -4.47754
H          7.55899        3.16909       -2.42685
H          6.05378        2.17682       -2.20514
H          6.53622        0.91699       -4.00792
H          7.96830        1.97484       -4.31383
H          8.13686       -1.02490       -3.97943
H          8.13583       -0.10580       -5.54314
H          9.38828        0.20800       -4.40281
H          8.29844        2.58509       -0.15718
H          6.74717        3.50079       -0.25123
H          6.68126        1.74749        0.08288
H          9.41741        0.57606        0.85722
C          9.05003       -1.26232        1.94581
C          8.62166       -0.19530        0.89039
C          9.14921       -0.83671        3.40597
H          8.29169       -2.02002        2.05891
H          9.99060       -1.74434        1.61758
H          9.98819       -0.12826        3.54205
H          8.19611       -0.35576        3.72236
C          9.34221       -2.10308        4.27182
H          7.68180        0.26079        1.25295
H          8.46724       -2.78959        4.16239
H         10.24536       -2.66582        3.95012
H          9.42791       -1.84796        5.34487
C          5.61043       -7.83317       -9.24444
C          6.24809       -7.00863      -10.15461
C          6.87495       -6.01669       -9.41969
C          6.59289       -6.27996       -8.09317
N          5.82510       -7.38035       -8.00122
C          7.07129       -5.46985       -6.90391
N          6.64620       -6.05358       -5.60348
C          7.70489       -6.63374       -4.75072
H          6.25648       -7.11998      -11.22601
H          5.02069       -8.70849       -9.47875
H          7.46586       -5.19991       -9.80720
H          6.65124       -4.44296       -6.98335
H          8.17150       -5.37811       -6.97813
C          8.73412       -5.55837       -4.33509
C          6.99879       -7.22940       -3.51551
C          8.44352       -7.78994       -5.45871
H          8.23717       -4.65060       -3.96807
H          9.42569       -5.95306       -3.56025
H          9.36097       -5.22905       -5.18584
H          6.33346       -8.06716       -3.81548
H          7.73163       -7.61465       -2.77545
H          6.33967       -6.49840       -3.02098
H          7.72923       -8.58406       -5.76373
H          8.98201       -7.44221       -6.36286
H          9.19219       -8.24332       -4.77192
Mg         5.37972       -4.91108       -4.57837
C         11.01939       -1.34068       -3.04673
C         10.53045       -2.83544       -1.31502
O         10.11108       -1.62250       -1.95715
C         10.94457       -2.31520       -4.24571
C         11.91941       -2.81195       -0.61775
H         10.96413       -0.28562       -3.32563
H         12.07254       -1.29774       -2.73368
H          9.82570       -3.11544       -0.52878
H         10.49905       -3.67839       -2.03403
H         11.88073       -2.25073        0.33217
H         12.21296       -3.86233       -0.39929
H         12.76648       -2.42160       -1.20690
H          9.92723       -2.39307       -4.67010
H         11.64386       -1.99040       -5.04972
H         11.28929       -3.34005       -3.97580
C          2.79403       -3.97401       -3.37543
C          2.23815       -2.91331       -2.68283
C          3.25984       -2.01802       -2.45501
C          4.40399       -2.57603       -3.00522
N          4.11325       -3.76859       -3.55326
C          5.78130       -2.00444       -2.99742
N          6.32748       -1.89904       -1.62856
C          6.34542       -3.19443       -0.87370
H          1.20495       -2.80415       -2.40164
H          2.26852       -4.85330       -3.72485
H          3.18899       -1.07294       -1.93526
H          6.45529       -2.62185       -3.62597
H          5.72037       -1.00553       -3.45545
C          7.24773       -4.20071       -1.57378
C          6.92636       -2.85581        0.42290
C          4.99036       -3.87803       -0.51603
H          8.17913       -3.70537       -1.88623
H          7.48105       -5.07798       -0.93503
H          6.72357       -4.52675       -2.47606
H          6.29624       -2.09248        0.94056
H          7.06590       -3.73858        1.08428
H          7.89706       -2.44983        0.12880
H          4.27007       -3.16242       -0.06785
H          4.52852       -4.42442       -1.34502
H          5.15400       -4.70065        0.21402
