81
speciation732.ct
Na         6.12728        1.10381        2.28998
Mg         2.25521        4.69769       -1.13543
C          2.17641        7.31737       -2.19099
C          1.75044        7.18771        0.11660
O          1.63929        6.53732       -1.13265
C          3.67869        7.62599       -2.11922
C          1.10474        6.33344        1.19540
H          2.01551        6.74373       -3.11386
H          1.59366        8.26141       -2.31092
H          2.80978        7.34653        0.40923
H          1.20432        8.15787        0.08698
H          1.65388        5.37352        1.29825
H          1.14174        6.87223        2.16665
H          0.04457        6.12598        0.93972
H          4.27223        6.70195       -2.10908
H          3.98513        8.17535       -3.03250
H          3.93785        8.25903       -1.24743
H          6.23356        2.38780       -1.43628
C          7.01565        2.62211       -3.36776
C          5.95775        2.04125       -2.43724
C          8.45989        2.40956       -2.86110
H          6.88587        2.16898       -4.36985
H          6.83966        3.71567       -3.42736
H          8.58975        2.90409       -1.87114
H          8.69338        1.32850       -2.74186
C          9.45316        3.03110       -3.84207
H          6.04868        0.93476       -2.38787
H          9.38835        2.51614       -4.82395
H          9.22639        4.11042       -3.98463
H         10.49153        2.93977       -3.45852
C          6.87500        3.82096        1.05032
C          6.48014        4.84626        0.22207
C          5.21102        4.51867       -0.22402
C          4.88980        3.31069        0.34732
N          5.90420        2.89139        1.13540
C          3.63844        2.51594        0.12265
N          2.88700        2.81065       -1.13828
C          1.61795        2.01938       -1.21212
H          7.05676        5.71979       -0.03823
H          7.82828        3.74703        1.55984
H          4.59272        5.06810       -0.89321
H          3.94713        1.45502        0.13282
H          3.02738        2.71185        1.02524
C          0.66408        2.31906       -0.02472
C          0.86860        2.44404       -2.46260
C          1.88540        0.50083       -1.30638
H          0.46309        3.41080        0.04310
H         -0.30905        1.79991       -0.16754
H          1.05333        1.96206        0.94703
H          1.46120        2.19494       -3.35549
H         -0.10458        1.91537       -2.55995
H          0.67125        3.53229       -2.39240
H          2.57548        0.28087       -2.14895
H          2.31884        0.09752       -0.36969
H          0.93484       -0.05035       -1.47788
Mg         3.88048        2.73116       -2.94072
C          3.84315        1.99522       -5.74085
C          3.30319        1.99338       -7.00894
C          2.25014        2.85851       -6.99031
C          2.20386        3.39731       -5.72123
N          3.17332        2.83381       -4.92002
C          1.11939        4.39070       -5.35269
N          1.58830        5.78763       -5.28362
C          1.72598        6.56456       -6.54790
H          3.63090        1.40870       -7.85973
H          4.67536        1.38951       -5.42419
H          1.58926        3.09209       -7.81694
H          0.25406        4.29671       -6.03789
H          0.65962        4.12637       -4.40538
C          0.50437        6.40810       -7.49284
C          1.84194        8.04242       -6.17158
C          3.02140        6.16070       -7.27370
H         -0.42998        6.72072       -6.97710
H          0.63139        7.04959       -8.39194
H          0.37894        5.37460       -7.87288
H          2.70373        8.20865       -5.49213
H          1.99366        8.66334       -7.08381
H          0.92000        8.39652       -5.66400
H          3.89047        6.27697       -6.59297
H          2.99715        5.12379       -7.63449
H          3.17603        6.79519       -8.17097
