81
speciation812.ct
Na         0.92161        0.03333       -0.05238
Mg        -2.11991        0.49143       -1.86682
C         -2.76920        2.12210       -4.06593
C         -0.47999        2.05796       -3.39035
O         -1.84068        1.94639       -3.00357
C         -2.74490        1.04028       -5.15520
C         -0.07786        3.50935       -3.66308
H         -3.78879        2.14533       -3.62993
H         -2.63823        3.12214       -4.52040
H          0.13756        1.70981       -2.53469
H         -0.21017        1.40145       -4.23846
H         -0.28814        4.13671       -2.77149
H          1.00619        3.55803       -3.89435
H         -0.61888        3.92447       -4.53684
H         -1.74751        0.89244       -5.60975
H         -3.41980        1.35784       -5.97896
H         -3.10885        0.07553       -4.75889
H          4.30505       -4.29483       -0.78186
C          2.16387       -3.98556       -1.05413
C          3.49223       -3.64915       -0.38992
C          2.23384       -3.78719       -2.56881
H          1.91298       -5.04463       -0.82735
H          1.37229       -3.33044       -0.62746
H          2.46435       -2.72407       -2.79713
H          3.03795       -4.42828       -2.99207
C          0.90851       -4.16978       -3.22369
H          3.39224       -3.85377        0.69433
H          0.67787       -5.23910       -3.02641
H          0.08296       -3.54131       -2.82607
H          0.97664       -4.01975       -4.32142
C         -3.72869       -1.98531       -2.71744
C         -3.98339       -3.18273       -2.07781
C         -3.33953       -3.12457       -0.85767
C         -2.72278       -1.89465       -0.81165
N         -2.95554       -1.21227       -1.93784
C         -1.90418       -1.33123        0.30326
N         -1.44839        0.03333       -0.05238
C         -1.79148        1.09777        0.91987
H         -4.57708       -4.00207       -2.45753
H         -4.08869       -1.70569       -3.69476
H         -3.33038       -3.88733       -0.08726
H         -1.01713       -1.97702        0.47150
H         -2.52420       -1.35771        1.21928
C         -1.17305        0.80878        2.30857
C         -1.18871        2.41145        0.39649
C         -3.32082        1.27624        1.04354
H         -0.07408        0.68528        2.22655
H         -1.37943        1.64740        3.00840
H         -1.58453       -0.10971        2.77213
H         -1.61724        2.67028       -0.59169
H         -1.40227        3.25118        1.09291
H         -0.08645        2.32008        0.28750
H         -3.77050        1.46770        0.04627
H         -3.81342        0.38518        1.48157
H         -3.55672        2.13511        1.70887
Mg         3.99911       -1.66540       -0.72675
C          5.97454       -0.92146       -2.96660
C          6.26363        0.30516       -3.54014
C          5.47575        1.24060       -2.89722
C          4.75337        0.54149       -1.95447
N          5.04176       -0.76249       -2.01122
C          3.76877        1.09886       -0.96991
N          3.29161        0.03333       -0.05238
C          3.72212        0.14783        1.35985
H          6.97058        0.49744       -4.33611
H          6.41765       -1.87034       -3.23524
H          5.44434        2.30644       -3.08490
H          2.90602        1.51442       -1.53125
H          4.25853        1.93347       -0.43645
C          3.21926        1.46027        2.00710
C          3.09484       -1.01191        2.14284
C          5.25689        0.04389        1.47673
H          2.11566        1.53878        1.92171
H          3.48415        1.48475        3.08863
H          3.66489        2.36952        1.56112
H          3.47083       -1.97549        1.77031
H          3.35993       -0.95492        3.22224
H          1.98694       -1.00204        2.05261
H          5.60933       -0.91083        1.02963
H          5.76670        0.88024        0.95793
H          5.57102        0.06451        2.54448
