80
speciation957.ct
Na         2.74754        0.38871        0.78387
Mg         2.51578       -1.63801       -4.00118
H          0.81699        0.20711       -4.60453
C         -0.48436       -1.53064       -4.42579
C          0.83789       -0.87065       -4.87150
C         -0.73123       -2.99852       -4.85635
H         -0.59789       -1.44256       -3.32448
H         -1.29519       -0.93897       -4.89728
H         -1.78831       -3.23789       -4.59758
H         -0.62627       -3.09922       -5.95844
C          0.12690       -4.05789       -4.16061
H          0.94627       -0.96514       -5.97254
H          1.19895       -3.94894       -4.41758
H         -0.00407       -4.01325       -3.05736
H         -0.20893       -5.06894       -4.49178
C          5.06410       -3.17141       -3.75543
C          6.07355       -3.50031       -2.87368
C          5.77343       -2.88665       -1.67461
C          4.58696       -2.20401       -1.85889
N          4.15254       -2.38656       -3.15219
C          3.88413       -1.37636       -0.77954
N          4.58144       -0.21664       -0.13775
C          4.95606        0.93962       -1.02533
H          6.93093       -4.12479       -3.08520
H          4.99475       -3.49318       -4.78736
H          6.35917       -2.94130       -0.76346
H          3.63048       -2.10608        0.04302
H          2.90152       -1.06180       -1.16966
C          3.70346        1.42692       -1.77156
C          5.48369        2.19334       -0.27336
C          6.13420        0.54495       -1.94159
H          2.91989        1.68889       -1.02252
H          3.90805        2.34532       -2.35339
H          3.30586        0.66413       -2.46365
H          6.52341        2.06938        0.06705
H          5.61731        3.02684       -1.00201
H          4.80422        2.58172        0.51505
H          7.01135        0.26956       -1.31056
H          5.92909       -0.29821       -2.60650
H          6.44066        1.39185       -2.58380
Na         7.64471       -0.96872        0.57902
Mg         5.00108       -0.38986        1.87862
H          3.56159       -0.32151        4.34170
C          2.12824       -1.44078        3.17715
C          3.21293       -0.34865        3.28650
C          2.68915       -2.80830        3.55323
H          1.28382       -1.20680        3.86600
H          1.73179       -1.46907        2.14227
H          3.55340       -3.04757        2.91119
H          3.03282       -2.78540        4.62062
C          1.65250       -3.92590        3.41323
H          2.70981        0.62900        3.10955
H          0.77554       -3.74375        4.06745
H          1.31807       -3.99835        2.35849
H          2.11187       -4.89673        3.70435
C         10.48097        2.78060        2.70171
C         10.48653        2.23003        1.43936
C          9.26351        1.59529        1.25676
C          8.54242        1.74618        2.37719
N          9.26279        2.49524        3.33277
C          7.14164        1.23985        2.65519
N          6.93660       -0.21081        2.45016
C          7.51261       -1.11567        3.47853
H         11.30949        2.29782        0.73756
H         11.28626        3.34880        3.15047
H          8.96441        1.07100        0.35935
H          6.43279        1.76253        2.02965
H          6.80361        1.56629        3.65083
C          7.12731       -0.69344        4.91395
C          6.96667       -2.53216        3.23270
C          9.05092       -1.18612        3.33623
H          6.02210       -0.67178        5.02420
H          7.54648       -1.40485        5.65531
H          7.53817        0.30043        5.18200
H          7.22700       -2.88800        2.21293
H          7.39985       -3.24711        3.96805
H          5.86381       -2.54967        3.34122
H          9.33088       -1.51111        2.30982
H          9.54015       -0.21907        3.54216
H          9.48147       -1.91076        4.05819
