81
speciation388.ct
Na         1.30815        0.16010       -0.71976
Mg         3.71734        2.70257       -2.77789
C          0.42883       -1.98589        1.36154
C         -1.11901       -2.03147       -0.46740
O         -0.02528       -1.35743        0.16743
C          0.73978       -3.49490        1.24590
C         -2.40613       -2.01598        0.36532
H          1.37336       -1.49000        1.65162
H         -0.28441       -1.80788        2.19413
H         -1.33551       -1.51430       -1.42636
H         -0.84891       -3.07024       -0.75018
H         -2.74480       -0.97377        0.55186
H         -3.20779       -2.55041       -0.17960
H         -2.27659       -2.53232        1.33406
H          1.45898       -3.68448        0.42049
H          1.18593       -3.85591        2.19641
H         -0.17862       -4.09933        1.08487
H          6.23418        2.47679       -1.84291
C          6.75230        2.04472       -3.89350
C          5.77217        1.96639       -2.71504
C          7.02850        3.48890       -4.30822
H          7.71364        1.56657       -3.59594
H          6.33155        1.47778       -4.75116
H          6.08495        3.96654       -4.59538
H          7.47468        4.05594       -3.46347
C          7.98783        3.54660       -5.50416
H          5.66424        0.88986       -2.46881
H          8.97617        3.11765       -5.23411
H          7.56868        2.98131       -6.36403
H          8.13171        4.60304       -5.81503
C         -0.51278        1.87406       -1.81552
C         -1.34748        1.27428       -2.72444
C         -0.56162        0.85787       -3.76123
C          0.72912        1.24004       -3.47440
N          0.76705        1.69539       -2.18373
C          1.84486        1.24222       -4.53839
N          2.78287        2.41484       -4.58342
C          2.29992        3.70706       -5.15536
H         -2.41328        1.12823       -2.60097
H         -0.81542        2.22316       -0.83644
H         -0.89646        0.35846       -4.65764
H          1.33387        1.17454       -5.51314
H          2.43761        0.30969       -4.46873
C          1.08892        4.18485       -4.37871
C          3.44296        4.73860       -5.04351
C          1.91287        3.64125       -6.64975
H          1.33091        3.97352       -3.35070
H          0.85936        5.26158       -4.55825
H          0.19016        3.58714       -4.60322
H          4.28077        4.45301       -5.72214
H          3.11085        5.76146       -5.36802
H          3.84662        4.81375       -4.02090
H          2.78504        3.35678       -7.27582
H          1.07889        2.93988       -6.84323
H          1.57987        4.64900       -6.99344
Mg         4.14875        1.96489       -5.90699
C          4.02226       -1.10824       -0.31257
C          5.33859       -0.83925       -0.01292
C          5.43078        0.52455        0.19023
C          4.15724        1.01879       -0.02651
N          3.30774        0.03889       -0.32977
C          3.78695        2.46682        0.20416
N          3.08407        3.21223       -0.88031
C          2.69915        4.61319       -0.43048
H          6.12875       -1.56831        0.12698
H          3.60024       -2.08233       -0.50337
H          6.31100        1.06739        0.48492
H          3.14971        2.42912        1.10278
H          4.73661        2.98779        0.45529
C          3.95308        5.43365       -0.06505
C          1.96794        5.43203       -1.50799
C          1.68814        4.55753        0.74729
H          4.66093        5.42607       -0.92451
H          3.68518        6.48583        0.16137
H          4.46106        5.04757        0.83541
H          0.94994        5.03552       -1.69649
H          1.76686        6.46569       -1.14787
H          2.57844        5.55639       -2.41957
H          0.80289        3.94761        0.44353
H          2.10355        4.13862        1.67561
H          1.32197        5.57454        1.00381
