83
speciation544.ct
Na         3.93677        4.50794       -2.85085
Mg         2.21259        4.53163       -1.16140
C          3.54065        4.81165       -5.88466
C          2.09636        6.25903       -4.66513
O          2.69508        4.97583       -4.75392
C          4.64972        5.86058       -6.03937
C          1.05133        6.50364       -5.75595
H          4.03746        3.83085       -5.76396
H          2.94259        4.72092       -6.81558
H          1.55045        6.30253       -3.70617
H          2.84590        7.07501       -4.62695
H          0.25333        5.73345       -5.69860
H          0.59310        7.50451       -5.60736
H          1.50728        6.48758       -6.76635
H          5.24668        5.93086       -5.10614
H          5.31935        5.56400       -6.87387
H          4.23373        6.85558       -6.29979
C          6.39161        4.54833       -0.54044
C          6.79660        4.00548        0.66169
C          5.81807        3.11171        1.04493
C          4.85592        3.14641        0.05701
N          5.20522        4.02996       -0.90676
C          3.59287        2.32516        0.04739
N          2.84439        2.64459       -1.16425
C          1.56859        1.97348       -1.45967
H          7.70684        4.23487        1.19987
H          6.93367        5.28551       -1.11699
H          5.81032        2.50440        1.94082
H          3.85983        1.24819        0.05975
H          2.99779        2.57850        0.94927
C          0.59830        2.11100       -0.28376
C          0.97065        2.70472       -2.68566
C          1.76872        0.50020       -1.83652
H          0.55282        3.17510       -0.00496
H         -0.41946        1.75808       -0.55574
H          0.94693        1.54309        0.60000
H          1.65374        2.62262       -3.55898
H         -0.01457        2.28054       -2.97485
H          0.82291        3.78685       -2.48282
H          2.46621        0.41647       -2.69726
H          2.17670       -0.08109       -0.98541
H          0.79711        0.04918       -2.13728
Na         4.15438        2.25300       -3.10009
C          4.85359        0.86741       -5.80896
C          6.81382        1.65367       -4.76132
O          5.43674        1.86968       -4.99508
C          4.86022       -0.53655       -5.19271
C          7.34717        2.74856       -3.85026
H          3.79214        1.15887       -5.95669
H          5.31288        0.86354       -6.82127
H          7.00914        0.68811       -4.25183
H          7.37215        1.70922       -5.72247
H          6.84434        2.69266       -2.86184
H          8.43979        2.60832       -3.69990
H          7.16845        3.74741       -4.29806
H          4.41313       -0.51556       -4.17805
H          4.26546       -1.21963       -5.83531
H          5.88670       -0.95303       -5.14236
C          2.38065        7.50408       -1.18299
C          1.62217        8.66083       -1.16526
C          0.30341        8.26438       -1.12324
C          0.31232        6.88744       -1.11379
N          1.58080        6.41867       -1.15855
C         -0.90043        6.01912       -1.02162
N         -0.83204        5.08827        0.10877
C         -0.83289        5.59318        1.50151
H          1.98730        9.67661       -1.16579
H          3.46041        7.46093       -1.20676
H         -0.56567        8.90747       -1.09082
H         -1.83332        6.62844       -0.98350
H         -0.96169        5.41867       -1.95150
C         -2.10600        6.40223        1.79603
C         -0.80411        4.35732        2.42120
C          0.42355        6.42365        1.83499
H         -3.00903        5.78292        1.60188
H         -2.12072        6.72955        2.85732
H         -2.15586        7.31152        1.16080
H          0.10419        3.74908        2.22952
H         -0.78700        4.66103        3.49106
H         -1.69492        3.71550        2.25186
H          1.34358        5.86350        1.56289
H          0.42356        7.40680        1.33015
H          0.46241        6.65760        2.91951
