81
speciation437.ct
Na         1.44115        1.41007       -0.35002
Mg         0.38592       -0.96069       -0.69224
C          0.17264        4.33071       -0.84566
C          1.96891        3.67876       -2.21519
O          1.35701        3.52623       -0.95893
C         -0.86625        4.23780       -2.01711
C          2.41567        5.11178       -2.46892
H         -0.23140        4.12433        0.15487
H          0.41657        5.40086       -0.71199
H          2.85875        3.02602       -2.20702
H          1.31738        3.34840       -3.04286
H          2.99830        5.47488       -1.59918
H          3.02526        5.13692       -3.39018
H          1.53938        5.77745       -2.62695
H         -1.07321        3.20559       -2.34377
H         -1.82287        4.73735       -1.72311
H         -0.52652        4.70974       -2.94975
H         -0.72610       -3.49630        0.00105
C         -0.16582       -3.72135       -2.08064
C         -0.73280       -2.92844       -0.95527
C          1.25635       -4.10411       -1.74783
H         -0.78447       -4.63460       -2.23735
H         -0.21479       -3.08505       -2.99090
H          1.84090       -3.19083       -1.52606
H          1.26114       -4.76410       -0.85052
C          1.87144       -4.82038       -2.93068
H         -1.80708       -2.85258       -1.24467
H          1.28592       -5.73490       -3.16573
H          1.86640       -4.14367       -3.81268
H          2.91421       -5.09666       -2.68494
C          4.28276        1.22050       -6.04419
C          3.16546        1.14416       -6.87542
C          2.03370        1.00698       -6.11789
C          2.39910        0.99532       -4.76440
N          3.91319        1.12660       -4.75991
C          0.95589        0.83657       -3.45687
N          0.18214        0.79512       -1.85061
C         -1.16528        0.97830       -0.80583
H          3.18585        1.16159       -7.95790
H          5.30881        1.30998       -6.37923
H          1.01160        0.91299       -6.48177
H          0.55806       -0.11680       -3.81862
H          0.28516        1.59978       -3.90201
C         -2.27948       -0.13342       -0.84579
C         -0.72154        0.89783        0.71958
C         -2.19593        2.21189       -0.57209
H         -1.94655       -1.05309       -0.43815
H         -3.03656       -0.03230       -0.01058
H         -2.91442       -0.17676       -1.74435
H          0.08150        1.56824        1.08382
H         -1.48230        1.19058        1.49494
H         -0.67140       -0.13977        1.01305
H         -1.86437        3.06206        0.02666
H         -2.89139        2.48093       -1.38044
H         -2.96797        1.99734        0.23062
Mg         4.02656        1.01788       -2.77612
C          5.05355        1.81182       -0.40067
C          5.64277        1.40465        0.75638
C          5.08162        0.18411        1.04208
C          4.08485       -0.05158        0.08867
N          4.13993        0.90916       -0.79233
C          3.11011       -1.12599       -0.10121
N          1.90936       -0.72612        0.64687
C          1.93147       -1.09523        2.13425
H          6.45265        1.89775        1.27745
H          5.35515        2.66721       -0.99122
H          5.44031       -0.43048        1.84347
H          3.48952       -2.15291        0.01967
H          2.80230       -1.07951       -1.17193
C          2.92378       -0.23171        2.93603
C          0.60477       -0.85846        2.87116
C          2.24040       -2.60094        2.34391
H          2.93697        0.81809        2.56082
H          2.70956       -0.18881        4.02169
H          3.88343       -0.73236        2.97959
H         -0.19706       -1.50342        2.46432
H          0.69263       -1.16691        3.93573
H          0.36447        0.22262        2.92133
H          1.45455       -3.22493        1.86655
H          3.22750       -2.90318        1.94780
H          2.28007       -2.83838        3.42800
