110
speciation2443.ct
Na         0.95834        0.06544       -0.06311
Mg         4.12450        1.45005        1.15703
C         -2.27794       -0.76259       -0.74780
C         -1.74346        1.43068       -0.10182
O         -1.36166        0.06544       -0.06311
C         -1.79486       -2.19989       -0.71668
C         -2.96748        1.75341        0.76826
H         -3.24636       -0.77103       -0.20004
H         -2.43409       -0.43605       -1.79947
H         -0.89901        2.01064        0.32924
H         -1.87997        1.78972       -1.14457
H         -2.80337        1.42826        1.81757
H         -3.14268        2.85062        0.76250
H         -3.88665        1.27438        0.37436
H         -1.61252       -2.51327        0.33407
H         -2.57625       -2.85919       -1.15289
H         -0.85936       -2.29857       -1.30268
H          5.90104       -0.32168        1.99010
C          6.64329        1.38426        3.07312
C          6.05076        0.76499        1.81276
C          5.67945        1.26864        4.25375
H          7.59707        0.86115        3.31743
H          6.86660        2.45358        2.87587
H          4.73245        1.79004        3.99947
H          5.45594        0.19890        4.46343
C          6.27904        1.90607        5.50537
H          6.80157        0.87225        1.00420
H          7.20756        1.37422        5.80608
H          6.51925        2.97419        5.31552
H          5.54986        1.84933        6.34023
C          2.95727       -3.01678        3.56826
C          2.43104       -1.79272        3.87674
C          2.60333       -0.98715        2.76661
C          3.21892       -1.76053        1.81144
N          3.43809       -3.01893        2.31615
C          3.56813       -1.33962        0.38685
N          3.32834        0.06544       -0.06311
C          3.78956        0.31298       -1.47321
H          1.96187       -1.52982        4.81250
H          2.97699       -3.89464        4.20672
H          2.28745        0.03490        2.66183
H          2.87126       -1.94477       -0.20594
H          4.63260       -1.60533        0.27400
C          2.95151       -0.48843       -2.49403
C          3.61289        1.80326       -1.79722
C          5.29066       -0.01655       -1.69443
H          1.87347       -0.24596       -2.39300
H          3.26686       -0.23915       -3.53189
H          3.08772       -1.57978       -2.38155
H          4.25848        2.40659       -1.13606
H          3.93338        2.02160       -2.84106
H          2.55591        2.11961       -1.68444
H          5.93000        0.57507       -1.01474
H          5.52256       -1.09298       -1.57489
H          5.59416        0.23654       -2.73380
Na         4.21996       -5.02457        1.89867
Mg         4.19566       -8.99885        2.70560
C          4.51795      -11.85660        2.95261
C          2.62209      -11.07947        3.97182
O          3.94512      -10.72120        3.60749
C          5.94619      -11.59581        2.55194
C          1.97234      -10.00591        4.82518
H          4.56180      -12.72053        3.65573
H          3.93898      -12.13775        2.04306
H          1.99220      -11.26941        3.08203
H          2.63706      -11.99430        4.61689
H          1.83806       -9.07820        4.23106
H          0.97142      -10.36986        5.15400
H          2.58542       -9.80269        5.72851
H          6.55930      -11.27759        3.42258
H          6.38736      -12.51018        2.10086
H          5.92431      -10.82992        1.77238
H          4.11794        4.08165        2.02889
C          2.14833        3.91128        1.12050
C          3.65541        3.60465        1.14336
C          1.40057        3.28406        2.30219
H          1.97901        5.01299        1.11990
H          1.71441        3.50663        0.18112
H          0.31293        3.48517        2.18359
H          1.55236        2.18703        2.28428
C          1.83910        3.84761        3.65468
H          4.10852        4.10994        0.26324
H          2.91198        3.64783        3.84671
H          1.65745        4.94322        3.69115
H          1.25613        3.36170        4.46388
C          3.52072       -4.26609       -1.03712
C          2.69662       -4.86840       -1.94728
C          2.40200       -6.12485       -1.43808
C          3.10028       -6.22073       -0.24710
N          3.62775       -5.04420        0.03533
C          3.35427       -7.42506        0.64468
N          4.45134       -7.20764        1.65989
C          5.91926       -7.05733        1.28633
H          2.37469       -4.41883       -2.87428
H          3.98414       -3.31246       -1.13078
H          1.79532       -6.87432       -1.91888
H          3.65709       -8.27987        0.00078
H          2.41684       -7.69652        1.15087
C          6.22528       -5.86660        0.33365
C          6.67167       -6.76102        2.59666
C          6.55495       -8.29144        0.61876
H          5.96284       -4.88296        0.76470
H          7.31875       -5.78024        0.15749
H          5.76553       -6.02630       -0.66082
H          6.61718       -7.63790        3.28732
H          7.75209       -6.55227        2.41190
H          6.23467       -5.89336        3.11967
H          6.77783       -9.06345        1.35955
H          5.95785       -8.67808       -0.22978
H          7.56384       -8.03912        0.21823
