68
speciation43.ct
Na         1.41239        2.00929        0.20368
Mg         6.83128        0.02572       -3.37683
C          1.57896        4.67271        1.30184
C          2.17043        4.49098       -1.01340
O          2.17355        3.89562        0.27116
C          0.18143        5.23255        1.00852
C          3.19403        5.61912       -1.11402
H          1.48077        4.00196        2.18163
H          2.26973        5.48259        1.61831
H          2.47658        3.70928       -1.74050
H          1.16188        4.81724       -1.33740
H          4.20513        5.23488       -0.86185
H          3.20841        6.01667       -2.15059
H          2.93444        6.44918       -0.42547
H         -0.50783        4.41778        0.70420
H         -0.21488        5.71391        1.92778
H          0.21614        6.01781        0.22545
C         -1.66008        1.14782        0.01075
C         -2.33273       -0.05062       -0.13644
C         -1.36784       -1.03302       -0.21956
C         -0.15477       -0.38157       -0.11784
N         -0.33636        0.93492        0.01943
C          1.20257       -1.00893       -0.14465
N          2.24500        0.03300       -0.00400
C          3.21207       -0.15550        1.09966
H         -3.40530       -0.19218       -0.17634
H         -2.12329        2.12516        0.11010
H         -1.53037       -2.09633       -0.33366
H          1.34387       -1.53298       -1.11514
H          1.23760       -1.76821        0.65922
C          4.00222       -1.47417        0.93704
C          4.21319        1.01039        1.03294
C          2.50503       -0.11342        2.47256
H          4.52674       -1.49334       -0.04157
H          4.76415       -1.57022        1.74072
H          3.34781       -2.36661        0.99651
H          3.69079        1.98178        1.14678
H          4.97197        0.93056        1.84114
H          4.74340        1.01523        0.05618
H          1.92500        0.82796        2.57925
H          1.81089       -0.96583        2.61276
H          3.25148       -0.16326        3.29437
Na         3.59933        0.09296       -1.94799
C          4.23831       -3.85402       -2.22188
C          5.12866       -4.39207       -3.12563
C          5.38471       -3.42089       -4.07796
C          4.67437       -2.33115       -3.77250
N          3.92159       -2.53595       -2.59399
C          4.59621       -1.08756       -4.62235
N          4.95365        0.15292       -3.89199
C          4.77671        1.39392       -4.69589
H          5.53031       -5.39824       -3.09725
H          3.82932       -4.37161       -1.36342
H          6.01726       -3.54287       -4.94824
H          3.54518       -1.04637       -4.96094
H          5.26107       -1.23188       -5.49722
C          3.29498        1.62227       -5.07717
C          5.24085        2.58102       -3.83892
C          5.63755        1.36894       -5.98386
H          2.65829        1.65078       -4.16777
H          3.17860        2.58498       -5.62044
H          2.91019        0.83765       -5.75920
H          6.30975        2.46393       -3.56003
H          5.13214        3.53525       -4.40162
H          4.63775        2.65273       -2.90947
H          6.70880        1.20983       -5.73632
H          5.31260        0.57651       -6.68894
H          5.54317        2.32923       -6.53544
