83
speciation1913.ct
Na         0.94067        0.13237        0.08185
C         -1.11483       -1.08833        1.92892
C          0.53290        0.11441        3.15075
O          0.25096       -0.68689        2.00331
C         -2.13889        0.05545        1.95736
C          0.39062       -0.60974        4.49922
H         -1.23744       -1.61447        0.96359
H         -1.35556       -1.85001        2.70398
H          1.59989        0.40326        3.10486
H         -0.06871        1.04677        3.15605
H          1.11259       -1.44959        4.56921
H          0.61764        0.10988        5.31840
H         -0.63768       -0.98483        4.67429
H         -1.87141        0.82478        1.20465
H         -3.14825       -0.34476        1.72323
H         -2.20305        0.51850        2.96521
C         -4.85001        0.21684       -4.59561
C         -4.38505       -0.39114       -5.66636
C         -2.99835       -0.71124       -5.34962
C         -2.70707       -0.24087       -4.00621
N         -3.96031        0.04219       -3.59211
C         -1.21690        0.11191       -3.13112
N         -0.15174       -0.41132       -1.95116
C          0.37448       -1.73976       -2.37894
H         -4.95890       -0.61424       -6.55771
H         -5.93673        0.46909       -4.46310
H         -2.35841       -1.12325       -6.08602
H         -0.59933        0.33939       -4.02200
H         -1.48119        1.13914       -2.82330
C          0.78028       -1.79319       -3.88425
C          1.61282       -2.14091       -1.56718
C         -0.66397       -2.78303       -2.12103
H          1.50531       -0.98563       -4.12253
H          1.25132       -2.76803       -4.13554
H         -0.09299       -1.71625       -4.56560
H          1.43130       -2.11864       -0.47305
H          1.94572       -3.16986       -1.83629
H          2.43443       -1.49584       -1.84624
H         -0.91406       -2.82954       -1.03916
H         -1.57865       -2.56515       -2.69898
H         -0.22450       -3.74281       -2.46563
Na        -4.54912       -1.78377       -3.14535
Mg        -2.10823       -0.32334       -1.59832
C          4.13082        0.31409       -0.47835
C          3.45644        1.87577        1.10045
O          3.00361        0.96570        0.10886
C          4.80049       -0.71441        0.44226
C          2.35140        2.82125        1.52103
H          3.82353       -0.15481       -1.41098
H          4.88416        1.04067       -0.85776
H          3.83908        1.34011        1.99661
H          4.25444        2.53249        0.68292
H          1.54204        2.28460        2.03131
H          2.77003        3.56990        2.22862
H          1.92790        3.33545        0.63713
H          4.04778       -1.40008        0.88217
H          5.54071       -1.31131       -0.13391
H          5.35631       -0.20306        1.25686
C         -4.81598        0.87994       -1.12773
C         -6.11104        0.55004       -0.79523
C         -6.15057       -0.82284       -0.65969
C         -4.86949       -1.27927       -0.90642
N         -4.06472       -0.23537       -1.24548
C         -4.44958       -2.76532       -0.80435
N         -3.95856       -3.24759       -2.10395
C         -3.77335       -4.68350       -2.41735
H         -6.93118        1.23976       -0.64723
H         -4.43482        1.88208       -1.27547
H         -7.01739       -1.41277       -0.39650
H         -3.65570       -2.87826       -0.04991
H         -5.34632       -3.34413       -0.51803
C         -5.06055       -5.48715       -2.22704
C         -3.32734       -4.80882       -3.90083
C         -2.69307       -5.29340       -1.51294
H         -5.86790       -5.11433       -2.88914
H         -4.86213       -6.55383       -2.47895
H         -5.38956       -5.45753       -1.16914
H         -2.42101       -4.20149       -4.11306
H         -3.08373       -5.86448       -4.15683
H         -4.12178       -4.46237       -4.59550
H         -1.70667       -4.94465       -1.77728
H         -2.87061       -5.05286       -0.44722
H         -2.61972       -6.38721       -1.64972
