110
speciation1907.ct
Na         1.80748        0.08312        2.96074
Mg        -2.65607        6.50421        6.86340
C          1.75813       -2.84998        2.91683
C          3.82268       -2.05517        2.01171
O          2.44260       -1.79805        2.24287
C          2.45322       -3.42143        4.16636
C          4.03793       -3.11211        0.91968
H          0.78571       -2.42833        3.24008
H          1.50195       -3.66650        2.20979
H          4.31003       -1.12270        1.66327
H          4.35922       -2.32612        2.94141
H          3.70687       -2.72343       -0.06668
H          5.11684       -3.36952        0.85678
H          3.48678       -4.04991        1.13788
H          2.73585       -2.61088        4.86025
H          1.76840       -4.11909        4.69085
H          3.36220       -4.00005        3.90294
H         -0.69286        5.53007        8.25542
C         -2.17557        4.39757        9.31934
C         -1.72913        5.68974        8.62109
C         -2.15260        3.23230        8.34207
H         -1.45483        4.18155       10.14327
H         -3.18918        4.51443        9.75074
H         -2.88580        3.42530        7.52949
H         -1.12993        3.19082        7.92660
C         -2.46378        1.88444        9.00132
H         -1.70068        6.50435        9.37192
H         -1.69274        1.63183        9.75929
H         -3.46562        1.89623        9.47722
H         -2.46334        1.07765        8.23625
C         -0.41061        4.86375       -0.71735
C         -0.54667        3.76853       -1.53572
C         -0.19495        2.66237       -0.76704
C          0.12365        3.14969        0.47305
N         -0.01334        4.48019        0.51014
C          0.55770        2.34550        1.66302
N          1.93086        1.81994        1.58650
C          3.04315        2.75557        1.94174
H         -0.84151        3.77329       -2.57688
H         -0.55892        5.89663       -1.00693
H         -0.18497        1.63640       -1.10558
H         -0.13823        1.48124        1.70943
H          0.38988        2.92419        2.59012
C          2.88477        3.34598        3.35861
C          4.34439        1.93862        1.89600
C          3.19695        3.91922        0.93133
H          2.78365        2.54135        4.11467
H          3.76987        3.96839        3.62012
H          2.01162        4.02596        3.43053
H          4.50811        1.51997        0.87876
H          5.22350        2.57214        2.15527
H          4.29805        1.10104        2.62168
H          3.29517        3.54899       -0.11138
H          2.36015        4.63309        0.98981
H          4.10663        4.51627        1.16930
Na         0.64141        6.02398        2.18493
Mg        -1.17617        9.62014        6.69311
C          1.27838       -0.32152        5.99324
C         -0.49206        0.73486        4.78296
O          0.89370        0.43712        4.84455
C          0.37909       -1.52605        6.34985
C         -0.88363        1.74806        5.84288
H          2.30092       -0.69255        5.80907
H          1.37898        0.34204        6.87937
H         -0.72508        1.19668        3.81645
H         -1.12902       -0.16985        4.83642
H         -0.33462        2.70346        5.69554
H         -1.97540        1.94251        5.78976
H         -0.64618        1.34045        6.84371
H          0.24678       -2.19369        5.47793
H          0.83547       -2.10643        7.17815
H         -0.62088       -1.20004        6.70798
H         -4.92445        5.13752        7.58358
C         -5.84907        6.17607        5.92264
C         -4.85268        6.13907        7.11039
C         -5.52517        5.12233        4.85324
H         -6.88105        5.98898        6.29604
H         -5.84814        7.18609        5.46513
H         -4.51244        5.26489        4.49246
H         -5.59531        4.10135        5.28280
C         -6.41012        5.23213        3.61386
H         -5.19479        6.88749        7.85806
H         -7.46745        5.00946        3.85806
H         -6.33189        6.24925        3.17240
H         -6.05293        4.50325        2.85318
C          2.28619        8.41295        3.51050
C          2.61730        9.24504        4.55499
C          1.78946        8.90012        5.60236
C          0.99106        7.87248        5.14149
N          1.29616        7.56777        3.85971
C         -0.05080        7.17405        5.95645
N         -1.36802        7.83527        5.92009
C         -2.04146        7.96963        4.60880
H          3.37993       10.01014        4.56074
H          2.75883        8.41385        2.53386
H          1.77844        9.34659        6.58836
H         -0.11368        6.10058        5.68982
H          0.29724        7.19487        7.01099
C         -2.26714        6.55903        4.05392
C         -3.35939        8.69599        4.89355
C         -1.30631        8.84168        3.55787
H         -2.64537        5.92404        4.87147
H         -2.93073        6.55478        3.16712
H         -1.30423        6.08891        3.76441
H         -3.14874        9.73386        5.23665
H         -3.98335        8.75340        3.97455
H         -3.92194        8.19614        5.69354
H         -0.76538        9.68639        4.03651
H         -0.64215        8.24625        2.91320
H         -2.00813        9.26496        2.81097
