70
speciation1074.ct
Na         1.04842        0.01411        0.08635
Mg         4.07942       -1.79934       -0.63969
C         -1.92277       -0.71034        1.10918
C         -1.91260       -0.21268       -1.15197
O         -1.27158        0.01411        0.08635
C         -1.23877       -0.45423        2.44260
C         -1.21869        0.58122       -2.24890
H         -2.97133       -0.34702        1.21587
H         -1.91355       -1.80432        0.90385
H         -1.90623       -1.29099       -1.41924
H         -2.96331        0.15588       -1.11030
H         -0.16238        0.26607       -2.34637
H         -1.73720        0.40646       -3.21627
H         -1.24524        1.66582       -2.01630
H         -1.22608        0.63396        2.66593
H         -1.79433       -0.97763        3.25031
H         -0.19941       -0.83821        2.41609
H          5.92166       -2.32033        1.33953
C          6.18584       -4.14317        0.35440
C          5.26937       -2.98804        0.76214
C          7.31016       -3.75160       -0.62048
H          6.65397       -4.54909        1.28053
H          5.58108       -4.94899       -0.10590
H          7.93149       -4.65584       -0.79734
H          6.86877       -3.45133       -1.58447
C          8.23302       -2.63289       -0.12458
H          4.52456       -3.38812        1.47944
H          7.68433       -1.67218       -0.03459
H          8.68523       -2.89609        0.85477
H          9.05293       -2.48124       -0.86021
C          5.87817       -1.29827       -3.05806
C          6.12558       -0.11448       -3.72978
C          5.40716        0.87380       -3.07137
C          4.76446        0.25665       -2.02499
N          5.05504       -1.05958       -2.01351
C          3.83057        0.91876       -1.02483
N          3.41842        0.01411        0.08635
C          3.84899        0.49504        1.43465
H          6.74463        0.01018       -4.59829
H          6.25116       -2.26729       -3.33832
H          5.36594        1.92306       -3.33183
H          2.93451        1.29325       -1.55817
H          4.37792        1.81142       -0.66975
C          3.24326        1.88155        1.78024
C          3.30884       -0.49189        2.48215
C          5.38960        0.60488        1.54750
H          2.13600        1.86033        1.71623
H          3.53071        2.17792        2.81374
H          3.61056        2.69147        1.11939
H          3.67274       -1.51427        2.30693
H          3.61298       -0.18765        3.50782
H          2.19881       -0.51447        2.44882
H          5.89134       -0.29425        1.18689
H          5.79996        1.43582        0.94148
H          5.69579        0.78923        2.60001
C          2.90888       -4.13568       -1.98521
C          1.88464       -2.03585       -2.40356
O          2.65512       -2.81879       -1.49008
C          3.74080       -4.25595       -3.27984
C          0.46491       -2.57792       -2.64264
H          3.40325       -4.73857       -1.19721
H          1.94809       -4.67626       -2.10008
H          1.77174       -1.03015       -1.96088
H          2.39207       -1.87010       -3.37205
H         -0.07023       -2.67856       -1.67718
H         -0.09493       -1.88623       -3.30582
H          0.46551       -3.55635       -3.16409
H          3.66945       -3.39673       -3.96809
H          3.38248       -5.14217       -3.85141
H          4.80971       -4.42049       -3.04170
