110
speciation2206.ct
Na         5.04814        1.82300        3.22645
Mg         5.87683        2.96504       -2.31990
C          4.93550        2.49772        6.06275
C          5.33626        4.46410        4.86596
O          5.49824        3.04968        4.88605
C          3.40791        2.64255        6.14758
C          6.11964        5.07525        3.72577
H          5.17824        1.41638        6.06517
H          5.42084        2.91823        6.97010
H          4.27527        4.75985        4.73337
H          5.75587        4.90855        5.79569
H          5.71232        4.70639        2.76024
H          6.02719        6.18166        3.74280
H          7.19268        4.82795        3.85224
H          2.93089        2.21711        5.24153
H          3.03590        2.10164        7.04394
H          3.10388        3.70276        6.26195
H          8.45233        2.32831       -4.86212
C         10.04737        3.34800       -4.70340
C          8.47198        3.31729       -4.44198
C         10.78111        4.69021       -4.57132
H         10.58512        2.58111       -4.09904
H         10.24816        3.04293       -5.77352
H         10.30254        5.43429       -5.24408
H         10.70937        5.03131       -3.51879
C         12.25924        4.58473       -4.97661
H          8.15643        3.92137       -5.30643
H         12.81750        3.85041       -4.34743
H         12.39454        4.29578       -6.04024
H         12.76682        5.57770       -4.84458
C          5.06109       -0.67062        1.18764
C          4.66884       -1.06657       -0.07546
C          3.97771       -0.01259       -0.61020
C          3.99450        1.00987        0.33028
N          4.65283        0.59387        1.42559
C          3.38692        2.35433        0.23673
N          2.91013        2.73372       -1.11839
C          2.42371        4.14358       -1.15631
H          4.85383       -2.02339       -0.54362
H          5.62862       -1.27622        1.88362
H          3.54910        0.05083       -1.60206
H          2.59767        2.38344        0.98178
H          4.18436        3.06181        0.53961
C          3.58212        5.15200       -0.94410
C          1.82614        4.39738       -2.54596
C          1.33262        4.42865       -0.09395
H          4.37790        4.95537       -1.67419
H          3.22964        6.19749       -1.07525
H          4.02565        5.10689        0.06989
H          0.97361        3.70968       -2.72916
H          1.45723        5.44395       -2.62955
H          2.59084        4.23602       -3.33548
H          0.48696        3.71793       -0.19978
H          1.73325        4.36402        0.93943
H          0.94556        5.46523       -0.20074
Na         4.22012        2.34214       -3.05423
Mg         4.67179        0.53707       -6.09708
C          8.99206        2.63763       -1.23539
C          7.28119        2.56483        0.37569
O          7.54492        2.68350       -0.98327
C          9.78162        1.44731       -0.62526
C          7.81224        3.75441        1.15634
H          9.19985        2.53926       -2.29329
H          9.48497        3.59329       -0.95861
H          6.20232        2.53360        0.48516
H          7.63238        1.59332        0.78184
H          7.35031        4.69059        0.77107
H          7.56663        3.55954        2.20069
H          8.91598        3.84970        1.11527
H          9.38527        0.47373       -0.98233
H         10.85495        1.50237       -0.92846
H          9.79225        1.46084        0.48420
H          4.57617       -1.41674       -7.83436
C          2.77850       -0.26885       -8.17015
C          3.79190       -0.91192       -7.23190
C          1.70919        0.49604       -7.38688
H          3.31744        0.43727       -8.83876
H          2.30517       -1.06047       -8.79115
H          1.17107       -0.19876       -6.70606
H          2.19451        1.29057       -6.77854
C          0.69816        1.14327       -8.33112
H          3.30322       -1.66220       -6.57441
H          1.20790        1.85059       -9.01997
H          0.17607        0.36611       -8.92950
H         -0.05725        1.70449       -7.74192
C          6.35209        5.74955       -3.17528
C          6.41680        6.53645       -4.30441
C          6.10106        5.72101       -5.37065
C          5.87335        4.45622       -4.85494
N          5.99294        4.49163       -3.50379
C          5.65376        3.21710       -5.73144
N          5.53012        1.95055       -4.99007
C          6.46021        0.80978       -4.67892
H          6.69871        7.58120       -4.34877
H          6.59228        6.07307       -2.16906
H          6.09595        6.00714       -6.41356
H          6.41513        3.12579       -6.52922
H          4.68289        3.40093       -6.23591
C          7.28538        0.98954       -3.38097
C          5.65405       -0.44793       -4.23400
C          7.24081        0.44036       -5.97445
H          6.81689        0.67274       -2.42633
H          8.28509        0.49963       -3.43483
H          7.27505        2.01356       -3.12193
H          4.92822       -0.86426       -4.92911
H          6.35786       -1.27701       -3.98676
H          5.07296       -0.21634       -3.31409
H          6.53162        0.10288       -6.75705
H          7.76941        1.28184       -6.46196
H          7.96804       -0.37505       -5.79531
