81
speciation747.ct
Na         3.12232       -0.30480        1.92405
Mg         4.03746        1.26301       -1.01790
C          2.65858        2.42867       -3.12863
C          2.79319        3.82630       -1.19180
O          2.73376        2.50480       -1.70877
C          3.61842        3.33583       -3.90731
C          1.47148        4.58438       -1.38041
H          2.92252        1.38911       -3.40062
H          1.61322        2.58125       -3.47319
H          2.98136        3.76820       -0.10140
H          3.64468        4.39756       -1.60662
H          0.65038        4.06026       -0.84710
H          1.56489        5.61188       -0.96914
H          1.20301        4.67581       -2.45312
H          4.63464        3.22347       -3.50610
H          3.60711        3.05776       -4.98252
H          3.33155        4.40302       -3.83152
H          7.68428        5.80909       -2.68961
C          5.66175        6.51930       -2.37306
C          6.64404        5.48166       -2.90127
C          5.83164        6.69119       -0.85926
H          5.84288        7.48956       -2.88454
H          4.62947        6.18942       -2.60490
H          5.67939        5.71518       -0.34836
H          6.86176        7.05021       -0.64101
C          4.83048        7.69776       -0.30035
H          6.52587        5.35206       -3.99751
H          4.96056        8.68670       -0.78934
H          3.79240        7.33947       -0.46799
H          4.99302        7.81720        0.79186
C          4.53027       -1.83833       -3.98298
C          5.12486       -3.00477       -3.55579
C          5.04208       -3.03108       -2.17186
C          4.40704       -1.93495       -1.77917
N          4.05421       -1.12829       -2.87430
C          4.13584       -1.56138       -0.34077
N          3.14572       -0.48225       -0.21517
C          1.71156       -0.89677       -0.46683
H          5.57429       -3.74778       -4.19620
H          4.43653       -1.50808       -5.00875
H          5.42523       -3.80605       -1.52389
H          5.07390       -1.22393        0.14107
H          3.85950       -2.44814        0.25284
C          1.32634       -2.17772        0.31995
C          0.78446        0.23158        0.01675
C          1.38888       -1.15624       -1.95435
H          1.51864       -2.05358        1.40576
H          0.24953       -2.42025        0.18288
H          1.87215       -3.07315       -0.04306
H          1.00925        1.18363       -0.49807
H         -0.28030       -0.02467       -0.19654
H          0.88003        0.38240        1.11147
H          1.61905       -0.27194       -2.57633
H          1.90644       -2.05622       -2.33747
H          0.30885       -1.38730       -2.08721
Mg         6.34196        3.68864       -1.97636
C          5.47805        4.18122        3.02699
C          4.42189        3.30354        2.92773
C          4.68482        2.45364        1.86394
C          5.86416        2.79391        1.33860
N          6.41402        3.90103        2.02171
C          6.62004        2.02033        0.29898
N          6.04729        1.93957       -1.07413
C          7.01975        1.22436       -2.00005
H          3.57094        3.27092        3.59503
H          5.59202        4.95595        3.77529
H          4.08757        1.61509        1.55806
H          6.72665        1.00627        0.73066
H          7.60959        2.50497        0.27109
C          7.39654       -0.19147       -1.51131
C          6.41424        1.12463       -3.41004
C          8.36269        1.99542       -2.19896
H          6.51495       -0.80078       -1.39078
H          8.04723       -0.70756       -2.24975
H          7.96246       -0.18249       -0.55864
H          6.38037        2.11494       -3.90033
H          7.03727        0.48244       -4.07155
H          5.39316        0.73359       -3.38317
H          8.20303        2.97655       -2.69181
H          8.94350        2.15952       -1.27450
H          9.03931        1.40974       -2.86104
