96
speciation1775.ct
Na         2.07448       -0.31892        1.66722
Mg         1.22156        2.04681       -1.22780
C         -1.54960        3.30220       -2.03451
C          0.15591        3.96220       -3.56710
O         -0.14540        3.26408       -2.34369
C         -2.50273        2.73094       -3.11247
C         -0.32677        5.42416       -3.67343
H         -1.72980        2.73431       -1.10554
H         -1.86234        4.33982       -1.78182
H          1.24662        3.97096       -3.69176
H         -0.26655        3.43545       -4.44658
H          0.08861        6.07761       -2.88781
H          0.00454        5.82736       -4.65585
H         -1.43243        5.50607       -3.65415
H         -2.30085        1.65828       -3.30306
H         -3.55855        2.82755       -2.77006
H         -2.44883        3.29045       -4.07113
H          5.53317        1.34794       -3.80791
C          5.72794        3.48812       -3.94729
C          4.86061        2.22995       -3.88845
C          6.63093        3.59249       -2.71945
H          6.38189        3.45441       -4.85411
H          5.06448        4.37434       -4.03438
H          6.01116        3.52904       -1.80884
H          7.33889        2.73651       -2.69185
C          7.42500        4.90380       -2.72772
H          4.34500        2.17022       -4.86961
H          8.11144        4.93693       -3.59515
H          6.74074        5.77602       -2.77372
H          8.02222        4.97582       -1.79173
C          0.76549       -2.92574        0.69329
C          0.66219       -3.75487       -0.39523
C          1.39602       -3.17292       -1.40034
C          1.86996       -1.95311       -0.92623
N          1.53016       -1.86339        0.38177
C          2.71509       -0.90082       -1.70542
N          2.02241        0.28123       -2.35735
C          1.55148       -0.06797       -3.75416
H          0.11526       -4.68900       -0.43658
H          0.31721       -3.08949        1.66388
H          1.53455       -3.62179       -2.36969
H          3.32871       -1.48196       -2.40167
H          3.53587       -0.53454       -1.12739
C          0.42943       -1.11662       -3.73185
C          0.95512        1.15121       -4.40498
C          2.67928       -0.56515       -4.71464
H         -0.35615       -0.84713       -2.99872
H         -0.03209       -1.24100       -4.73061
H          0.83995       -2.09448       -3.51921
H          1.71588        1.95261       -4.46994
H          0.60378        0.92997       -5.43855
H          0.07008        1.42145       -3.81374
H          3.45185        0.19992       -4.86480
H          3.18574       -1.50030       -4.41924
H          2.25286       -0.80176       -5.71309
Mg         3.24051        2.03429       -2.37015
C         -0.36254        0.18353        0.24716
C         -0.37078        2.26093        1.37466
O          0.19819        1.47558        0.34012
C         -1.86661        0.01483        0.10847
C          0.05906        1.80531        2.77899
H          0.04922       -0.24658       -0.67360
H         -0.07257       -0.39285        1.13900
H         -0.04464        3.29981        1.24816
H         -1.47527        2.31149        1.29898
H          1.16141        1.86638        2.89165
H         -0.41545        2.45350        3.54784
H         -0.26764        0.76572        2.99526
H         -2.24726        0.52690       -0.79115
H         -2.05557       -1.07839       -0.00312
H         -2.39767        0.33436        1.02638
C          4.74771       -0.91231        1.00620
C          5.96048       -0.53234        0.45630
C          5.82541        0.80377        0.13469
C          4.53816        1.17255        0.48106
N          3.90457        0.12173        1.02395
C          3.99637        2.55306        0.46778
N          3.05748        3.10344       -0.58279
C          3.00435        4.63013       -0.34898
H          6.82757       -1.15154        0.31725
H          4.52177       -1.91065        1.36761
H          6.58907        1.43521       -0.27883
H          3.56474        2.67900        1.47780
H          4.92601        3.10875        0.44417
C          4.39149        5.35953       -0.40769
C          2.18210        5.32108       -1.42284
C          2.34825        5.02559        1.01613
H          4.84926        5.24736       -1.40101
H          4.26300        6.45635       -0.27474
H          5.11534        5.10808        0.39299
H          1.16305        4.93077       -1.36440
H          2.11446        6.41972       -1.22791
H          2.63707        5.18549       -2.42511
H          1.25620        4.90008        0.99314
H          2.74464        4.50894        1.90642
H          2.51080        6.10562        1.23230
