80
speciation973.ct
Na         5.50840        0.74856        2.67050
Mg         1.46264        2.05131       -1.60780
H          0.78575        1.60197        0.96673
C         -0.60374        0.22528        0.11293
C          0.11914        1.58508        0.07176
C         -1.59017        0.09122       -1.04674
H          0.14582       -0.59632        0.06529
H         -1.15947        0.12436        1.07405
H         -2.34566        0.90506       -0.98931
H         -1.03357        0.18159       -2.00003
C         -2.31998       -1.25448       -1.02504
H         -0.62885        2.39035        0.21256
H         -1.59373       -2.09345       -1.07441
H         -2.93269       -1.35511       -0.10514
H         -2.99370       -1.31935       -1.90647
C          4.35055       -1.07158        0.46064
C          3.60744       -1.11414       -0.69503
C          3.22826        0.18139       -0.96747
C          3.75374        0.96878        0.03415
N          4.43626        0.19345        0.90611
C          3.66485        2.45721        0.22285
N          2.97247        3.24220       -0.84046
C          3.07797        4.75293       -0.53197
H          3.37290       -1.99214       -1.28006
H          4.81227       -1.91735        0.95322
H          2.64636        0.48486       -1.80343
H          3.16329        2.59793        1.19895
H          4.71894        2.77028        0.29805
C          4.55680        5.22708       -0.54773
C          2.36057        5.71020       -1.51735
C          2.44645        5.11183        0.84249
H          5.02521        4.97997       -1.52497
H          4.62242        6.32914       -0.40709
H          5.16532        4.80302        0.27042
H          1.26546        5.55740       -1.53221
H          2.46358        6.76827       -1.18804
H          2.84430        5.74708       -2.50795
H          1.37057        4.83296        0.86092
H          2.96704        4.64991        1.70033
H          2.51128        6.20892        1.02810
Na        -1.07594       -1.24512       -6.48815
Mg         3.23239        2.22605       -2.62980
H          5.28338        1.38218       -4.23948
C          6.21834        1.16979       -2.34774
C          5.27753        1.93402       -3.28866
C          7.61647        1.00688       -2.96994
H          6.29274        1.71682       -1.38528
H          5.79892        0.15842       -2.15715
H          7.54406        0.44722       -3.92680
H          8.05127        2.00911       -3.17445
C          8.56673        0.24828       -2.03983
H          5.68241        2.94433       -3.49514
H          8.68129        0.79000       -1.07749
H          8.18294       -0.77461       -1.84060
H          9.56681        0.16183       -2.51883
C          1.81075       -0.83077       -7.51379
C          3.06561       -0.34133       -7.19705
C          2.97339        0.15259       -5.91730
C          1.67046       -0.01782       -5.50545
N          0.96570       -0.62605       -6.48772
C          1.09625        0.39055       -4.16786
N          1.49610        1.75087       -3.70818
C          1.07091        2.89963       -4.55056
H          3.94564       -0.34524       -7.82759
H          1.54620       -1.29663       -8.44667
H          3.75607        0.61389       -5.36728
H          1.43189       -0.34884       -3.42046
H         -0.01150        0.29898       -4.20682
C         -0.44336        2.92699       -4.84441
C          1.40236        4.08651       -3.73075
C          1.86955        3.03580       -5.87006
H         -1.02946        2.89272       -3.90128
H         -0.70501        3.87085       -5.37669
H         -0.74549        2.08507       -5.49747
H          2.49328        4.01594       -3.53490
H          1.16613        5.04961       -4.23262
H          0.82098        3.98582       -2.79357
H          2.96492        3.01640       -5.67412
H          1.60295        2.26192       -6.60955
H          1.63645        4.00471       -6.36462
