110
speciation2559.ct
Na        -0.07150        8.53743       -0.35951
Mg        -1.45623        3.24538        3.66391
C         -1.47064        3.75020        6.60253
C         -1.60663        5.47547        5.09732
O         -1.08438        4.23134        5.30590
C         -2.98236        3.58616        6.88848
C         -0.95758        6.53276        6.06692
H         -0.90855        2.86285        6.76623
H         -1.02866        4.32708        7.42679
H         -1.41799        5.70574        4.02978
H         -2.68408        5.32776        5.13254
H          0.07986        6.72695        5.73857
H         -1.45687        7.51279        6.13139
H         -1.00698        6.30144        7.12923
H         -3.47784        2.97496        6.12740
H         -3.11826        3.08977        7.87027
H         -3.50681        4.56561        6.96288
H         -3.83229        1.89052        2.55974
C         -4.82901        3.76436        2.71946
C         -3.78675        2.75280        3.25864
C         -6.25777        3.18937        2.49796
H         -4.91035        4.61455        3.41795
H         -4.48147        4.14979        1.73601
H         -6.90386        4.01194        2.11378
H         -6.25751        2.38554        1.72782
C         -6.91191        2.65059        3.77186
H         -4.16666        2.35395        4.20862
H         -6.39104        1.73613        4.12135
H         -6.89471        3.42131        4.57021
H         -7.97215        2.37995        3.56894
C         -1.67494        9.79629       -2.99504
C         -2.28557       11.00497       -3.31399
C         -2.18751       11.82541       -2.21944
C         -1.53669       11.04310       -1.26231
N         -1.19504        9.83799       -1.72778
C         -1.17695       11.47969        0.08677
N         -0.44706       10.36953        0.71181
C          0.43963       10.74249        1.86035
H         -2.74303       11.27934       -4.25668
H         -1.58079        8.95051       -3.65215
H         -2.55079       12.82336       -2.08044
H         -2.08237       11.71808        0.69493
H         -0.56442       12.38216       -0.01645
C         -0.40720       11.20699        3.06573
C          1.23889        9.49289        2.27423
C          1.47097       11.85466        1.53593
H         -1.12743       10.42774        3.37315
H          0.24156       11.42081        3.94360
H         -0.97145       12.13222        2.82732
H          1.91040        9.17577        1.44734
H          1.87813        9.70893        3.16065
H          0.56487        8.64804        2.52922
H          2.12850       11.56372        0.69208
H          1.00035       12.83370        1.31777
H          2.11488       12.04025        2.42613
Na        -1.64913        5.91380        1.00019
Mg        -1.72740        9.30517        1.80174
C         -4.20180        9.04345        2.78524
C         -2.70500        8.16615        4.20415
O         -2.97557        8.26754        2.86429
C         -4.57637        9.61684        1.43990
C         -3.86290        7.38178        4.92674
H         -5.07440        8.38926        2.99994
H         -4.19897        9.91742        3.49039
H         -1.72067        7.72411        4.11870
H         -2.52066        9.13430        4.71321
H         -4.17011        6.52608        4.28374
H         -3.63288        7.04653        5.95330
H         -4.77366        7.99245        5.06699
H         -4.69392        8.81075        0.69239
H         -5.57058       10.11389        1.57213
H         -3.86034       10.38803        1.11593
H         -0.53701        0.58010        3.69800
C         -1.07907        0.43420        5.75475
C         -0.59849        1.29358        4.53792
C         -2.48696       -0.14251        5.62047
H         -0.35845       -0.39317        5.91693
H         -1.07637        0.93959        6.72631
H         -2.72640       -0.67992        6.56669
H         -3.23589        0.66109        5.49333
C         -2.56710       -1.14590        4.48089
H          0.43150        1.63585        4.78027
H         -2.41502       -0.63849        3.50803
H         -1.78969       -1.92750        4.62323
H         -3.56574       -1.62470        4.48276
C          2.27276        6.92781       -0.77300
C          3.24469        5.98243       -0.57119
C          2.82088        5.21267        0.47850
C          1.57936        5.70128        0.87840
N          1.24770        6.78649        0.10096
C          0.83274        5.07699        2.08373
N         -0.44580        4.33947        1.82232
C         -0.37143        3.27425        0.77356
H          4.17077        5.88597       -1.12921
H          2.32046        7.70756       -1.52434
H          3.36173        4.37952        0.90572
H          1.52737        4.38088        2.59536
H          0.64348        5.90021        2.80207
C          0.55238        2.15757        1.27079
C         -1.78798        2.76742        0.61127
C          0.07149        3.68780       -0.65798
H          0.28662        1.92756        2.30059
H          0.47796        1.24103        0.65183
H          1.60963        2.49204        1.28741
H         -2.45010        3.58313        0.23527
H         -1.85829        1.89724       -0.07178
H         -2.09484        2.44867        1.59428
H         -0.49832        4.56101       -1.03648
H          1.15113        3.86497       -0.76050
H         -0.09928        2.83961       -1.36099
