95
speciation1277.ct
Na         0.93563       -0.07391        0.01984
Mg         4.28938        1.42222       -1.12206
C         -1.90820       -0.49931       -1.22786
C         -2.08556        1.04152        0.54758
O         -1.38437       -0.07391        0.01984
C         -1.87407        0.56632       -2.33160
C         -1.50703        1.46184        1.89262
H         -1.27808       -1.34812       -1.56433
H         -2.93427       -0.91047       -1.10568
H         -2.01679        1.92947       -0.11343
H         -3.15056        0.76505        0.72030
H         -0.45535        1.79766        1.77313
H         -2.10211        2.31233        2.29368
H         -1.55148        0.62559        2.62035
H         -0.86234        1.00470       -2.40469
H         -2.14077        0.10468       -3.30476
H         -2.61040        1.37415       -2.14132
H          3.96658        2.35089       -3.72895
C          1.89316        1.79197       -3.33244
C          3.40682        1.57381       -3.17395
C          1.37804        3.14243       -2.83767
H          1.62631        1.71049       -4.40965
H          1.36733        0.97780       -2.79158
H          0.28439        3.19887       -3.02158
H          1.50677        3.20687       -1.75502
C          2.05360        4.31806       -3.54742
H          3.59020        0.65657       -3.75399
H          3.14228        4.34520       -3.34096
H          1.89666        4.23511       -4.64389
H          1.62505        5.27521       -3.18938
C          3.39183        4.48767        4.94401
C          2.12545        5.00683        4.72931
C          1.51047        4.30974        3.65125
C          2.42188        3.35987        3.24601
N          3.63101        3.47312        4.11229
C          2.79301        1.43917        1.55097
N          3.30563       -0.07391        0.01984
C          3.22992       -1.49727       -0.48496
H          1.68001        5.79048        5.30387
H          4.08284        4.79052        5.72456
H          0.51131        4.47525        3.26514
H          3.75827        1.87990        1.39458
H          2.72274        0.70903        2.38021
C          1.83325       -2.16328       -0.53567
C          3.68300       -1.42170       -1.92769
C          4.13870       -2.46512        0.26676
H          1.15454       -1.64922       -1.25119
H          1.91409       -3.18963       -0.95995
H          1.37890       -2.24504        0.47152
H          4.59065       -0.81567       -1.94914
H          3.83977       -2.41269       -2.40139
H          2.91826       -0.88641       -2.50570
H          5.17581       -2.17551        0.13253
H          3.83851       -2.55972        1.33047
H          4.09234       -3.48232       -0.18437
Na         6.82879        2.91488       -1.95616
Mg         4.44033        1.90555        3.19151
H          4.14978        4.37235       -1.14611
C          4.27251        4.42556        0.97616
C          3.87892        3.68588       -0.32294
C          5.73076        4.58588        1.28267
H          3.72400        5.38623        1.11567
H          3.99995        3.80395        1.75641
H          5.86727        4.89442        2.34661
H          6.18297        3.60861        1.18446
C          6.37765        5.60260        0.38444
H          2.77614        3.69921       -0.24910
H          6.16343        5.36934       -0.67608
H          5.97759        6.60572        0.64343
H          7.46975        5.57155        0.55874
C          5.16304       -0.76646        3.04049
C          6.06139       -1.72000        2.63507
C          6.74108       -1.18873        1.57712
C          6.19715        0.05461        1.28818
N          5.24965        0.33798        2.27074
C          6.91887        0.94736        0.23797
N          6.37362        0.96607       -1.16449
C          7.16409        0.13981       -2.18827
H          6.25817       -2.67872        3.09339
H          4.54075       -0.84875        3.91903
H          7.57690       -1.66932        1.10070
H          7.97175        0.61502        0.22310
H          7.09155        1.95509        0.59943
C          7.24510       -1.38059       -1.88709
C          6.57105        0.31941       -3.60665
C          8.64230        0.61600       -2.32224
H          6.29921       -1.93216       -1.86253
H          7.84688       -1.89433       -2.66865
H          7.78106       -1.55862       -0.95197
H          6.60808        1.37875       -3.93888
H          7.13976       -0.28175       -4.35327
H          5.54934       -0.05224       -3.68485
H          8.71597        1.70028       -2.53353
H          9.26476        0.36877       -1.44134
H          9.13727        0.08757       -3.17295
