110
speciation2641.ct
Na         1.51989       -0.80991       -0.16756
Mg         5.33686       -4.67399       -3.83627
C          7.25216       -6.04965       -5.91089
C          6.21779       -7.72997       -4.57509
O          6.49325       -6.31115       -4.71232
C          6.61998       -6.53050       -7.23782
C          7.40668       -8.72022       -4.80390
H          7.40734       -4.95381       -5.97610
H          8.27337       -6.47388       -5.81820
H          5.88441       -7.91664       -3.53459
H          5.39326       -8.03014       -5.25794
H          8.26423       -8.52236       -4.10817
H          7.08086       -9.76555       -4.62586
H          7.81568       -8.71482       -5.83706
H          5.62287       -6.09054       -7.42254
H          7.27191       -6.24543       -8.08473
H          6.49561       -7.63396       -7.29190
H          7.17236       -1.48404        1.21852
C          7.98297       -0.68822        3.00366
C          6.86519       -0.68042        1.90509
C          7.96056       -1.93858        3.87167
H          8.99137       -0.58784        2.54653
H          7.92386        0.18321        3.67890
H          8.67023       -1.82944        4.72076
H          6.95910       -2.00073        4.29442
C          8.34012       -3.20231        3.10239
H          7.01916        0.30090        1.40316
H          7.65787       -3.38422        2.24915
H          9.38102       -3.10069        2.72610
H          8.29047       -4.08233        3.77606
C          7.25460       -2.65369       -2.41560
C          7.49350       -1.56987       -1.59517
C          6.28260       -1.17591       -1.14693
C          5.33978       -1.99341       -1.70480
N          5.93498       -2.95483       -2.51202
C          3.88003       -1.76536       -1.41476
N          3.62070       -0.56392       -0.55408
C          3.46636        0.73034       -1.38033
H          8.42194       -1.09252       -1.32955
H          8.05002       -3.17568       -2.94758
H          6.09016       -0.35931       -0.47915
H          3.47459       -2.63607       -0.89206
H          3.32322       -1.71529       -2.37731
C          2.42214        0.61442       -2.54617
C          2.95207        1.85642       -0.47092
C          4.76198        1.26173       -2.05960
H          1.48122        0.11434       -2.24963
H          2.14098        1.62528       -2.92940
H          2.84198        0.10419       -3.44044
H          3.75115        2.16137        0.20642
H          2.71648        2.78120       -1.04566
H          2.04195        1.55260        0.08552
H          5.54100        1.55276       -1.32868
H          5.16383        0.52905       -2.78889
H          4.54403        2.18048       -2.65267
Na         1.62533       -2.34028        1.95993
Mg         4.45190       -0.85419        1.66014
C          3.58110       -4.46802       -5.99757
C          2.12938       -4.33680       -4.17905
O          3.47560       -4.60321       -4.59231
C          3.27181       -3.06213       -6.53365
C          1.85033       -4.66987       -2.72544
H          4.63509       -4.65574       -6.23545
H          2.97752       -5.24366       -6.52318
H          1.87419       -3.26305       -4.31074
H          1.41893       -4.97009       -4.76262
H          2.46947       -4.04826       -2.07401
H          0.78247       -4.43399       -2.50511
H          2.03356       -5.73847       -2.50741
H          3.86229       -2.30416       -5.97877
H          3.53763       -3.01270       -7.61070
H          2.19030       -2.82166       -6.45762
H          4.28212        1.82245        2.11685
C          4.19128        1.55629        4.17028
C          3.80749        1.06433        2.75892
C          5.70305        1.54418        4.29620
H          3.82193        2.59470        4.33212
H          3.73935        0.91765        4.94730
H          5.97050        0.50411        4.10489
H          6.15839        2.22916        3.53826
C          6.24020        1.91561        5.67265
H          2.70580        1.15067        2.65841
H          5.93523        2.94246        5.95965
H          5.87914        1.18515        6.42553
H          7.35252        1.87047        5.65059
C          2.47872       -7.27272        2.05432
C          1.48117       -6.54011        1.48670
C          1.96845       -5.25119        1.30021
C          3.22670       -5.19538        1.75627
N          3.62478       -6.46198        2.23734
C          4.12094       -3.96178        1.79455
N          3.60581       -2.81005        2.59780
C          3.38314       -3.17237        4.07152
H          0.48932       -6.90865        1.24559
H          2.41184       -8.31863        2.35599
H          1.40671       -4.43229        0.87344
H          4.27356       -3.63972        0.76066
H          5.12749       -4.25329        2.15770
C          4.59577       -3.82776        4.78488
C          3.01802       -1.90365        4.83965
C          2.18934       -4.15245        4.30460
H          5.42823       -3.14133        4.87598
H          4.33250       -4.10075        5.83284
H          4.93122       -4.76739        4.30203
H          2.09796       -1.43950        4.42590
H          2.83287       -2.12944        5.91652
H          3.86637       -1.20476        4.78827
H          1.26692       -3.81996        3.79162
H          2.41342       -5.19785        4.04193
H          1.95574       -4.23907        5.38997
