110
speciation2175.ct
Na         1.02075        0.09061        0.03686
Mg         4.26388       -0.36787       -1.84480
C         -1.88113        0.16724        1.32274
C         -1.87563       -0.97988       -0.68413
O         -1.29925        0.09061        0.03686
C         -1.25226        1.30532        2.11369
C         -1.25195       -1.07204       -2.06958
H         -2.96532        0.40600        1.22609
H         -1.74833       -0.78051        1.89232
H         -1.73112       -1.95215       -0.16088
H         -2.96258       -0.78542       -0.83520
H         -0.17515       -1.33017       -1.99180
H         -1.76893       -1.86301       -2.65506
H         -1.36158       -0.10550       -2.60587
H         -1.34366        2.25998        1.55333
H         -1.77892        1.41336        3.08668
H         -0.18023        1.09341        2.30822
H          5.89947        1.68642       -1.16966
C          6.99431        1.13343       -2.88613
C          6.15598        0.74009       -1.67766
C          6.19063        2.01429       -3.84408
H          7.88447        1.70050       -2.53027
H          7.36450        0.21990       -3.39439
H          5.29074        1.47089       -4.19150
H          5.85559        2.93498       -3.31873
C          7.03318        2.40786       -5.05169
H          6.82834        0.17229       -1.00603
H          7.91653        2.99849       -4.72716
H          7.37902        1.50075       -5.59230
H          6.42343        3.02545       -5.74313
C          2.58080        4.46845       -1.00722
C          1.87983        3.61241       -1.82437
C          2.15276        2.32977       -1.37743
C          3.00914        2.47008       -0.29182
N          3.25985        3.76192       -0.09147
C          3.67235        1.42763        0.54749
N          3.39075        0.09061        0.03686
C          3.77976       -1.03493        0.93757
H          1.28578        3.89963       -2.68244
H          2.66161        5.54251       -1.12255
H          1.79646        1.41494       -1.82981
H          3.25385        1.57272        1.56010
H          4.75997        1.59832        0.60852
C          3.03472       -0.97091        2.28767
C          3.38803       -2.33295        0.22006
C          5.29870       -1.10848        1.21666
H          1.93852       -0.91026        2.13053
H          3.25622       -1.87723        2.89275
H          3.36709       -0.10613        2.89672
H          3.98730       -2.43095       -0.70795
H          3.60085       -3.22635        0.84548
H          2.30895       -2.32728       -0.04278
H          5.86877       -1.25200        0.28247
H          5.67102       -0.21253        1.75420
H          5.52473       -1.99360        1.85351
Na         5.03843        4.68660        1.17285
Mg         7.71792        6.98758        1.35710
C          4.81024       -1.43211       -4.53193
C          3.07576       -2.61263       -3.43258
O          4.24731       -1.80904       -3.27238
C          3.85075       -0.71886       -5.50273
C          3.35674       -3.98942       -4.07582
H          5.64823       -0.75632       -4.33255
H          5.29526       -2.29795       -5.03238
H          2.64354       -2.82314       -2.43956
H          2.27882       -2.07613       -3.98198
H          4.03707       -4.59298       -3.43820
H          2.40275       -4.54592       -4.19629
H          3.79908       -3.90784       -5.09051
H          3.38013        0.15434       -5.00699
H          4.41088       -0.37184       -6.39657
H          3.06175       -1.40298       -5.88039
H          9.27665        8.03607       -0.47163
C          9.34855        9.50333        1.11802
C          8.58357        8.49133        0.26415
C         10.49465        8.82065        1.87511
H          9.76593       10.29380        0.45412
H          8.65451        9.98121        1.84116
H         10.08068        8.04332        2.55125
H         11.18406        8.33775        1.14981
C         11.29227        9.82649        2.70449
H          7.77403        9.01793       -0.28925
H         11.73599       10.60548        2.04775
H         10.63954       10.31386        3.45920
H         12.11626        9.30135        3.23323
C          3.34555        8.43319        2.90571
C          4.38717        9.16389        2.38005
C          5.54540        8.43192        2.57306
C          5.22179        7.29761        3.19345
N          3.83320        7.23019        3.43992
C          6.18626        6.23059        3.61513
N          6.81700        5.61129        2.43718
C          7.72955        4.47139        2.73725
H          4.30097       10.13514        1.91219
H          2.30762        8.73600        2.91676
H          6.54213        8.73272        2.28810
H          5.60392        5.47611        4.17906
H          6.93978        6.69926        4.27953
C          6.96079        3.28896        3.37315
C          8.33733        3.97785        1.41168
C          8.89483        4.88459        3.66603
H          6.11884        2.97610        2.71894
H          7.63438        2.41526        3.51113
H          6.56093        3.54063        4.37527
H          8.88302        4.79997        0.90266
H          9.05967        3.15111        1.59696
H          7.54948        3.59773        0.72693
H          9.50183        5.69006        3.20317
H          8.53652        5.22424        4.65843
H          9.56138        4.01359        3.85433
