110
speciation2033.ct
Na         1.56090        0.06170       -0.02328
Mg        -1.32596        0.68623        2.34865
C          3.51320        1.85631       -1.80135
C          3.00318        3.11902        0.13619
O          2.60957        2.01621       -0.69781
C          5.00292        1.72572       -1.44566
C          2.93518        4.52137       -0.53955
H          3.27148        0.91676       -2.30024
H          3.35700        2.63972       -2.57469
H          2.35615        3.16821        1.03275
H          4.01861        2.95806        0.53950
H          1.91387        4.93827       -0.52825
H          3.55347        5.24417        0.03276
H          3.31562        4.55452       -1.58043
H          5.14044        0.90964       -0.70846
H          5.58395        1.48755       -2.36299
H          5.42669        2.67393       -1.05299
H         -1.18594        1.49933        5.16048
C         -2.80252        2.69658        4.60467
C         -1.44175        2.06528        4.24344
C         -2.76626        3.41257        5.98245
H         -3.09091        3.39089        3.79656
H         -3.56749        1.89330        4.66566
H         -2.52286        2.67273        6.77741
H         -1.98070        4.19225        6.00233
C         -4.10254        4.06649        6.35598
H         -0.68162        2.86800        4.15704
H         -4.36610        4.87415        5.64562
H         -4.91865        3.31447        6.36845
H         -4.03094        4.51974        7.36958
C         -3.83215       -0.93255        3.01301
C         -4.04622       -2.29690        2.92766
C         -2.84342       -2.86433        2.54334
C         -1.94675       -1.82356        2.41031
N         -2.55428       -0.65830        2.68734
C         -0.49663       -1.93291        1.95129
N          0.26142       -0.62176        1.97305
C          1.20750       -0.56350        3.11785
H         -4.98014       -2.81758        3.09839
H         -4.57833       -0.18676        3.24913
H         -2.65949       -3.91590        2.35834
H         -0.53702       -2.36329        0.94508
H         -0.03306       -2.72087        2.57262
C          2.34388       -1.61466        3.00913
C          1.84517        0.82670        3.07855
C          0.48212       -0.79184        4.46283
H          2.86748       -1.53904        2.03566
H          3.07764       -1.46946        3.83196
H          1.98584       -2.65824        3.12419
H          1.07402        1.61668        3.14695
H          2.57296        0.95613        3.90730
H          2.38797        0.95501        2.11776
H         -0.44514       -0.23359        4.46922
H          0.16216       -1.84271        4.60876
H          1.11841       -0.50978        5.32866
Na        -3.53170        2.86662        0.88407
Mg        -2.16901        5.49985        1.40355
C          1.18844       -2.63580       -1.60974
C          1.62729       -0.89286       -3.18569
O          1.33556       -1.24504       -1.82988
C          2.49121       -3.40070       -1.76535
C          0.61876       -1.37720       -4.24873
H          0.86915       -2.76926       -0.56856
H          0.35829       -3.07348       -2.20878
H          1.56056        0.20826       -3.27182
H          2.65502       -1.20615       -3.45417
H         -0.38705       -0.94199       -4.07892
H          0.96574       -1.03441       -5.24829
H          0.54539       -2.48087       -4.30365
H          3.26385       -2.93267       -1.12060
H          2.33793       -4.45401       -1.44902
H          2.82639       -3.39902       -2.82192
H         -4.05818        6.84350        2.64303
C         -2.25222        7.36396        3.72062
C         -3.13376        6.34626        3.00630
C         -0.93500        6.74352        4.18843
H         -2.02816        8.19584        3.01776
H         -2.81038        7.77108        4.59419
H         -1.13078        5.89713        4.87795
H         -0.36838        6.35713        3.31339
C         -0.07521        7.76758        4.92920
H         -3.42628        5.55119        3.71156
H          0.14592        8.63290        4.26942
H         -0.60419        8.12830        5.83784
H          0.88403        7.30276        5.24115
C         -1.02894        5.67539       -1.25446
C         -0.27114        5.00201       -2.19159
C         -0.00007        3.76936       -1.66233
C         -0.64092        3.71231       -0.42076
N         -1.23594        4.89195       -0.18479
C         -0.59178        2.55773        0.53648
N         -1.79186        1.68849        0.56709
C         -2.07127        0.85084       -0.65474
H          0.06416        5.38718       -3.15289
H         -1.40043        6.68437       -1.35364
H          0.59825        2.97747       -2.11834
H         -0.45540        3.00617        1.54142
H          0.31719        1.95601        0.38706
C         -0.88313        0.02053       -1.08025
C         -3.22294       -0.12431       -0.36911
C         -2.48583        1.66230       -1.89962
H         -0.56786       -0.62369       -0.27472
H         -1.14855       -0.63217       -1.94010
H         -0.05210        0.68065       -1.39468
H         -4.13859        0.42088       -0.04942
H         -3.45779       -0.74867       -1.25872
H         -2.94033       -0.85406        0.37685
H         -3.29142        2.38164       -1.66784
H         -1.63468        2.17936       -2.35862
H         -2.81317        0.98074       -2.70868
