95
speciation1520.ct
Na        -2.88029       -0.68251       -2.29544
Mg        -2.33024       -4.79988        1.07652
C          0.19431       -5.95360        1.72782
C         -1.49751       -7.51275        1.09585
O         -1.20048       -6.24197        1.64465
C          0.99336       -6.08218        0.43050
C         -1.06373       -8.66066        2.01702
H          0.30583       -4.90673        2.05523
H          0.66233       -6.54245        2.54483
H         -2.59808       -7.59094        0.99087
H         -1.08674       -7.63269        0.07184
H         -1.55944       -8.56596        3.00656
H         -1.34909       -9.63288        1.56399
H          0.03616       -8.67226        2.16289
H          0.55032       -5.45596       -0.36171
H          2.03105       -5.73133        0.61355
H          1.05443       -7.13414        0.09083
H         -5.06437       -4.56490        1.58354
C         -4.42005       -5.59547        3.36542
C         -4.32807       -5.34909        1.85416
C         -5.83586       -6.05736        3.77504
H         -3.68582       -6.38083        3.64585
H         -4.16247       -4.65577        3.89689
H         -6.58651       -5.29096        3.48293
H         -6.08583       -7.00941        3.25543
C         -5.94582       -6.28976        5.28201
H         -4.63231       -6.29297        1.35885
H         -5.22463       -7.06824        5.60953
H         -5.74553       -5.34776        5.83494
H         -6.97317       -6.63302        5.53353
C         -1.24652       -3.31041        3.34947
C         -0.63421       -2.15102        3.77501
C         -0.61856       -1.30144        2.69769
C         -1.25901       -1.96404        1.66493
N         -1.59044       -3.22006        2.04759
C         -1.51886       -1.35607        0.31644
N         -2.96649       -1.21547        0.01225
C         -3.70027       -0.15916        0.78911
H         -0.23137       -1.95265        4.76073
H         -1.39673       -4.19469        3.95353
H         -0.21496       -0.29740        2.67455
H         -1.03106       -1.97587       -0.44993
H         -1.00443       -0.38305        0.21682
C         -3.06629        1.23869        0.59876
C         -5.14581       -0.11389        0.27652
C         -3.79670       -0.45948        2.30901
H         -3.01945        1.50179       -0.47857
H         -3.65943        2.01263        1.13104
H         -2.04566        1.29338        1.02980
H         -5.64457       -1.09379        0.43608
H         -5.72986        0.65858        0.82763
H         -5.17348        0.13325       -0.80051
H         -4.21621       -1.47053        2.49969
H         -2.84133       -0.35239        2.83283
H         -4.44353        0.28911        2.81559
Na        -4.03243       -3.02030        0.34186
Mg        -4.20449       -1.12460       -5.53429
H         -2.61445       -3.40621       -1.26496
C         -2.20218       -5.11238       -2.42188
C         -2.02189       -4.32670       -1.11611
C         -3.65792       -5.48765       -2.68571
H         -1.87009       -4.46912       -3.26571
H         -1.55773       -6.01519       -2.41985
H         -4.29257       -4.57201       -2.69522
H         -3.74098       -5.97831       -3.67891
C         -4.14792       -6.44401       -1.62020
H         -0.95360       -4.04188       -1.10340
H         -3.52445       -7.36310       -1.61502
H         -4.05341       -5.93861       -0.65208
H         -5.20994       -6.70609       -1.79068
C         -5.97963        3.13452       -3.51645
C         -6.29177        1.86332       -3.09138
C         -5.26771        1.01880       -3.49529
C         -4.36659        1.75536       -4.14225
N         -4.75286        3.11027       -4.19216
C         -3.05919        1.29692       -4.75751
N         -2.79409       -0.14955       -4.60313
C         -1.47537       -0.59681       -5.14581
H         -7.18232        1.59320       -2.53884
H         -6.57657        4.02298       -3.35616
H         -5.21058       -0.04466       -3.30969
H         -2.27547        1.89527       -4.25842
H         -3.11539        1.56793       -5.82886
C         -0.30430        0.11444       -4.43684
C         -1.34253       -2.10403       -4.87108
C         -1.37786       -0.36975       -6.67653
H         -0.36714       -0.03743       -3.33702
H          0.66759       -0.30256       -4.78781
H         -0.27163        1.19910       -4.65074
H         -2.18525       -2.64607       -5.35967
H         -0.38864       -2.50019       -5.27609
H         -1.39104       -2.28608       -3.78789
H         -2.15720       -0.95043       -7.21432
H         -1.47301        0.69900       -6.95509
H         -0.38101       -0.70049       -7.04573
