81
speciation667.ct
Na         1.09798        1.95336        0.19367
Mg         3.22120        0.04639       -1.64696
C          6.07650       -0.33136       -1.93575
C          5.47713        1.85686       -2.56671
O          5.01144        0.55256       -2.26253
C          6.87937        0.07083       -0.68761
C          4.33738        2.73585       -3.02421
H          5.62968       -1.32862       -1.74844
H          6.76307       -0.46432       -2.80337
H          5.91907        2.34632       -1.67560
H          6.21355        1.82116       -3.40512
H          3.58037        2.80503       -2.21769
H          4.71737        3.75324       -3.25782
H          3.90014        2.31283       -3.94245
H          6.21956        0.21515        0.17885
H          7.59545       -0.73204       -0.42198
H          7.46580        0.99770       -0.85807
H          2.93117       -0.55174       -4.25582
C          1.36609        0.90591       -4.45930
C          2.13221       -0.13720       -3.60587
C          0.17622        1.53452       -3.73130
H          2.03792        1.71211       -4.80918
H          0.97424        0.40379       -5.37133
H         -0.35240        2.24082       -4.41049
H         -0.54082        0.74546       -3.41877
C          0.65086        2.30320       -2.52103
H          1.41931       -0.95995       -3.39327
H          1.20443        1.60925       -1.86917
H          1.33354        3.11695       -2.83973
H         -0.21605        2.72845       -1.97309
C         -1.91935        0.77695        0.21961
C         -2.49863       -0.47080        0.11653
C         -1.46362       -1.36829       -0.04740
C         -0.30189       -0.62694       -0.01899
N         -0.58170        0.67684        0.13677
C          1.08795       -1.14006       -0.13876
N          2.06823       -0.05309        0.08242
C          2.76574       -0.15477        1.40414
H         -3.55280       -0.70641        0.15267
H         -2.46254        1.70500        0.35498
H         -1.54080       -2.44016       -0.15557
H          1.23016       -1.56666       -1.14819
H          1.20271       -1.97701        0.57357
C          3.66528       -1.40492        1.52394
C          3.68679        1.07174        1.49838
C          1.77442       -0.22628        2.61359
H          4.37448       -1.48331        0.68750
H          4.24380       -1.36809        2.48570
H          3.07127       -2.34683        1.58856
H          3.15508        2.02045        1.40876
H          4.28016        1.08006        2.44545
H          4.37202        1.08062        0.64091
H          0.92754        0.46342        2.57078
H          1.26504       -1.20874        2.67580
H          2.30957       -0.08880        3.58414
Mg         3.46959        4.00415        0.26564
C          4.67904        6.27437       -1.38875
C          3.98013        7.28321       -2.02931
C          2.63722        7.03559       -1.81601
C          2.57542        5.89127       -1.05047
N          3.81152        5.44956       -0.77156
C          1.30704        5.18885       -0.56404
N          1.58122        4.12465        0.45873
C          0.87189        4.35861        1.74640
H          4.39982        8.10927       -2.58782
H          5.75441        6.16203       -1.36718
H          1.80258        7.62857       -2.16658
H          0.76740        4.77363       -1.42894
H          0.63767        5.97768       -0.18650
C         -0.62758        4.10149        1.50200
C          1.37952        3.35171        2.76499
C          1.10640        5.74669        2.38097
H         -0.76030        3.08576        1.08953
H         -1.21823        4.17440        2.43643
H         -1.05210        4.80552        0.75747
H          2.45400        3.50924        2.99852
H          0.79084        3.36582        3.70647
H          1.25530        2.38526        2.31796
H          2.19160        5.91759        2.54108
H          0.68846        6.58872        1.80308
H          0.59827        5.77942        3.37102
