95
speciation1549.ct
Na         1.21561        0.49541        0.24976
Mg         4.03763        0.18376        1.84740
C          4.61634        2.35979        3.79660
C          2.53898        2.63764        2.67814
O          3.84265        2.05389        2.63678
C          3.94892        2.04588        5.14331
C          2.54721        4.17074        2.53978
H          5.54536        1.76682        3.73362
H          4.95491        3.42120        3.77504
H          1.94344        2.20944        1.85440
H          1.97156        2.37608        3.58218
H          3.06849        4.50032        1.61768
H          1.49930        4.53871        2.50425
H          3.03213        4.64832        3.41635
H          3.57010        1.00812        5.14524
H          4.68283        2.16755        5.96564
H          3.11621        2.74896        5.35822
H          2.86764       -2.09551        2.76406
C          1.33626       -0.63003        3.28853
C          2.81544       -1.06297        3.15305
C          0.51325       -1.55387        4.20161
H          1.29114        0.37833        3.72135
H          0.86866       -0.61071        2.28261
H          0.49512       -2.57436        3.76566
H          0.97052       -1.60183        5.21445
C         -0.93228       -1.05347        4.35711
H          3.27726       -1.04022        4.16284
H         -0.95410       -0.06700        4.86747
H         -1.42417       -0.95599        3.36541
H         -1.51648       -1.77310        4.96823
C          1.92322       -4.63823       -0.57500
C          2.95782       -4.65367        0.32467
C          3.50901       -3.38933        0.32416
C          2.78799       -2.64034       -0.58400
N          1.81991       -3.43275       -1.14274
C          3.14439       -1.24188       -1.06480
N          3.24762       -0.00081       -0.19960
C          3.75627        1.14447       -1.07050
H          3.28306       -5.51888        0.88527
H          1.28499       -5.47080       -0.83740
H          4.38199       -3.07242        0.87610
H          2.39036       -1.06397       -1.83272
H          4.10327       -1.42979       -1.56557
C          2.85080        1.39105       -2.30796
C          3.76494        2.47913       -0.31905
C          5.21596        0.92402       -1.54385
H          1.79875        1.55653       -1.98523
H          3.17866        2.29266       -2.86806
H          2.89201        0.56923       -3.04692
H          4.48322        2.45415        0.51347
H          4.12349        3.30216       -0.97690
H          2.74217        2.76751       -0.02060
H          5.87898        0.79893       -0.67804
H          5.35324        0.06323       -2.21930
H          5.57674        1.80304       -2.11615
Na        -1.86496       -6.58149       -3.18997
Mg         0.44619       -3.44076       -2.52135
H          6.24909       -1.42150        1.32021
C          7.28451       -0.56783        3.00648
C          6.26275       -0.44762        1.84930
C          6.92937       -1.59970        4.08418
H          8.29013       -0.83672        2.59403
H          7.40298        0.42307        3.49244
H          7.68640       -1.53320        4.89857
H          5.93581       -1.35243        4.50996
C          6.94250       -3.04097        3.57387
H          6.73919        0.28369        1.17097
H          6.20728       -3.18863        2.75921
H          7.95812       -3.31409        3.20330
H          6.68332       -3.72899        4.40449
C         -0.24360       -0.92503       -2.73680
C         -1.26906       -0.65252       -1.85328
C         -2.19696       -1.66731       -2.02673
C         -1.70955       -2.48258       -3.03726
N         -0.50229       -2.08154       -3.29964
C         -2.06667       -3.85494       -3.48879
N         -0.85161       -4.70338       -3.40032
C          0.05702       -5.02030       -4.54575
H         -1.25244        0.14574       -1.13248
H          0.67714       -0.39261       -2.84320
H         -3.07863       -1.82202       -1.42351
H         -2.51899       -3.85615       -4.50942
H         -2.83112       -4.24470       -2.78202
C          1.00180       -3.85073       -4.93004
C          0.93917       -6.16889       -4.03149
C         -0.66590       -5.48430       -5.82365
H          1.60010       -3.48524       -4.07120
H          1.75121       -4.18936       -5.68135
H          0.44405       -3.00885       -5.39216
H          0.31979       -7.05105       -3.76776
H          1.69301       -6.48182       -4.78225
H          1.47839       -5.84904       -3.11708
H         -1.30715       -6.36634       -5.63628
H         -1.26968       -4.66687       -6.26637
H          0.09473       -5.77427       -6.58939
