110
speciation2205.ct
Na         2.14359       -1.24318       -2.12206
Mg         6.84143        2.12573       -0.66438
C         -0.91489       -2.30426       -0.80985
C          0.78203       -2.08756        0.85903
O          0.47290       -2.02761       -0.55080
C         -1.97271       -1.71401        0.18074
C          0.71451       -3.51167        1.44924
H         -1.16757       -1.88006       -1.79527
H         -1.06654       -3.40243       -0.84895
H          1.80216       -1.69556        1.03770
H          0.14666       -1.40224        1.46654
H          1.47060       -4.16167        0.96717
H          0.92064       -3.48571        2.54500
H         -0.28994       -3.96908        1.32740
H         -1.90178       -0.61045        0.25987
H         -2.99850       -1.96259       -0.17090
H         -1.90977       -2.14901        1.20497
H          8.53821        1.32548        1.33101
C          9.17189       -0.31280        0.09132
C          8.68409        1.14095        0.24227
C          9.46068       -0.61885       -1.37515
H         10.09822       -0.47397        0.69147
H          8.39401       -1.00413        0.48237
H          8.52859       -0.45291       -1.93161
H         10.24459        0.07271       -1.75433
C          9.90091       -2.05985       -1.62407
H          7.75962        1.21951       -0.34537
H         10.88152       -2.26660       -1.15068
H          9.14092       -2.77462       -1.24167
H          9.99723       -2.21241       -2.72214
C          3.44135       -0.91603       -5.30542
C          4.52740       -0.71618       -6.14745
C          5.56464       -0.32330       -5.37161
C          5.06710       -0.19979       -4.08038
N          3.76931       -0.68412       -4.00724
C          6.02158        0.30402       -3.00046
N          5.87267        1.74970       -2.62694
C          6.66581        2.73014       -3.43680
H          4.60007       -0.85673       -7.22072
H          2.48700       -1.25676       -5.65484
H          6.57137       -0.15673       -5.71059
H          7.05493        0.11602       -3.34196
H          5.94705       -0.36169       -2.15047
C          6.43215        2.65380       -4.95390
C          6.21320        4.11968       -2.97731
C          8.19028        2.58878       -3.21237
H          5.37607        2.57261       -5.18771
H          6.84593        3.54426       -5.47343
H          6.95989        1.81442       -5.40693
H          6.38111        4.23451       -1.89580
H          6.76689        4.91957       -3.51602
H          5.12679        4.25624       -3.15527
H          8.45996        2.68204       -2.14608
H          8.57904        1.62120       -3.59472
H          8.73265        3.37771       -3.77988
Na         2.68765        4.61672       -1.03477
Mg         3.82663        2.34155       -2.95976
C          7.96514        4.69338        0.34275
C          6.76420        3.65879        2.05729
O          6.99627        3.68453        0.64674
C          9.33353        4.48224        1.01077
C          5.58042        2.80905        2.45110
H          8.14058        4.69841       -0.74568
H          7.57740        5.71260        0.58615
H          7.64267        3.27014        2.61140
H          6.49448        4.68005        2.41434
H          5.80175        1.76008        2.29618
H          5.38604        2.87068        3.53715
H          4.68860        3.16023        1.91432
H          9.67654        3.44390        0.86692
H         10.08601        5.16080        0.55931
H          9.29152        4.70591        2.09843
H          3.64792        3.78958       -5.34918
C          1.57627        3.44054       -5.52929
C          2.95884        2.97720       -5.02846
C          1.19916        4.82606       -4.98205
H          1.60138        3.52163       -6.64015
H          0.81636        2.67430       -5.28276
H          1.23828        4.82012       -3.88159
H          1.93063        5.58241       -5.34048
C         -0.20295        5.24793       -5.42404
H          3.20399        2.07324       -5.62767
H         -0.26064        5.32949       -6.53078
H         -0.95868        4.51268       -5.07288
H         -0.44763        6.23860       -4.98403
C          4.30114       -1.68074       -0.65584
C          5.37378       -1.31909        0.09030
C          5.25255        0.03865        0.25905
C          4.08071        0.48767       -0.37234
N          3.56618       -0.60242       -0.97312
C          3.63109        1.95874       -0.32838
N          2.65877        2.49009       -1.31590
C          1.19491        2.21853       -1.08988
H          6.15893       -1.96482        0.43904
H          4.07940       -2.67486       -1.02335
H          5.98480        0.60497        0.74465
H          3.30653        2.17999        0.69158
H          4.55139        2.56587       -0.49803
C          0.69862        2.63670        0.31952
C          0.33698        2.98578       -2.10658
C          0.90469        0.76903       -1.31030
H          0.81421        3.73020        0.47515
H         -0.38299        2.39292        0.43095
H          1.21546        2.09780        1.13583
H          0.64847        2.71541       -3.12444
H         -0.73813        2.70146       -2.01402
H          0.39801        4.08133       -1.95462
H          1.27862        0.54753       -2.32846
H          1.38747        0.20674       -0.49805
H         -0.17823        0.53636       -1.27568
