96
speciation1706.ct
Na         2.43887       -0.72659        2.10652
Mg         3.88136        2.77595       -2.45248
C          6.77496        3.95575       -1.89380
C          5.44297        5.79423       -2.53396
O          5.56100        4.33147       -2.55935
C          6.81650        4.19972       -0.37583
C          6.54842        6.70102       -3.18470
H          6.95872        2.88598       -2.08868
H          7.66062        4.45205       -2.33276
H          5.43395        6.17682       -1.49242
H          4.46568        6.12996       -2.93580
H          6.22998        7.11815       -4.16037
H          6.69829        7.60664       -2.53909
H          7.56670        6.28482       -3.27682
H          6.05090        3.58910        0.08723
H          7.78872        3.87042        0.03644
H          6.69165        5.26104       -0.07485
H          6.51135        1.57142       -5.33828
C          7.46122        0.77577       -7.15041
C          6.45832        0.66045       -5.97169
C          7.29736        1.97245       -8.12029
H          8.44961        0.91481       -6.66263
H          7.50886       -0.17255       -7.72864
H          7.09528        2.89905       -7.54437
H          8.26807        2.11103       -8.64929
C          6.26720        1.79154       -9.24021
H          6.77044       -0.20922       -5.35534
H          6.57717        0.96651       -9.92106
H          5.25081        1.59376       -8.85078
H          6.24095        2.72062       -9.85581
C          1.95569        1.61902        3.98013
C          2.08481        2.98552        4.19377
C          2.57067        3.51911        3.02553
C          2.73020        2.47454        2.11835
N          2.37857        1.30506        2.74919
C          3.41737        2.56065        0.75411
N          2.67555        2.95475       -0.50875
C          2.05513        4.27410       -0.57481
H          1.83494        3.52122        5.10044
H          1.63719        0.91457        4.72692
H          2.82251        4.55171        2.88290
H          4.27390        3.19448        0.92020
H          3.85216        1.57226        0.59840
C          3.09535        5.32513       -0.22322
C          1.60743        4.43218       -2.02406
C          0.79980        4.42658        0.30653
H          3.96500        5.00591       -0.78561
H          2.78240        6.34971       -0.48442
H          3.40592        5.28530        0.83141
H          0.84408        3.65567       -2.27513
H          1.16998        5.43336       -2.20207
H          2.46970        4.29134       -2.70851
H          0.05592        3.64289        0.06902
H          1.01117        4.38597        1.37927
H          0.34182        5.42299        0.12786
Mg         4.48979        0.20546       -6.25358
C          5.07379       -0.17925       -1.19863
C          3.03681        0.44040       -2.10406
O          4.40253        0.80610       -2.00848
C          4.98804       -1.61897       -1.77889
C          2.15773       -0.08519       -0.93541
H          6.15107        0.06781       -1.12944
H          4.67716       -0.20951       -0.16450
H          2.55485        1.40174       -2.28888
H          2.94608       -0.25668       -2.94728
H          2.06170        0.56901       -0.05821
H          1.11487       -0.13852       -1.33037
H          2.42418       -1.09883       -0.59082
H          5.40715       -2.35436       -1.05497
H          5.53609       -1.70097       -2.73870
H          3.94985       -1.97018       -1.96181
C          1.97239       -1.18521       -7.27931
C          0.60997       -1.18492       -7.06338
C          0.35835       -0.19595       -6.13665
C          1.57303        0.37545       -5.82430
N          2.56950       -0.23838       -6.52855
C          1.63570        1.45698       -4.72570
N          2.69174        2.53727       -4.68760
C          2.30510        3.55564       -5.78542
H         -0.13062       -1.84339       -7.49018
H          2.49678       -1.87470       -7.92328
H         -0.60304        0.06847       -5.70996
H          1.53565        0.86093       -3.86212
H          0.63995        1.89536       -4.57102
C          1.05529        4.39748       -5.40810
C          3.46376        4.52047       -6.08380
C          1.95429        2.91296       -7.18067
H          1.22517        5.00966       -4.51386
H          0.79175        5.09693       -6.23321
H          0.14270        3.78452       -5.27062
H          4.32626        3.97959       -6.52739
H          3.13718        5.27658       -6.84207
H          3.77824        5.06764       -5.17771
H          2.78082        2.28622       -7.57734
H          1.01023        2.33156       -7.17005
H          1.74186        3.69200       -7.94825
