81
speciation440.ct
Na         1.09601        0.01600       -0.02294
Mg         3.76099        3.49829       -1.42329
C         -1.61226       -1.14987        0.69972
C         -1.76042        0.03728       -1.34216
O         -1.22399        0.01600       -0.02294
C         -1.36422       -2.49532       -0.01130
C         -3.26318        0.33388       -1.36202
H         -1.01146       -1.16072        1.63231
H         -2.67110       -1.07200        1.02588
H         -1.27183        0.83728       -1.90124
H         -1.51272       -0.86283       -1.93457
H         -3.47077        1.30752       -0.86975
H         -3.61499        0.38556       -2.41423
H         -3.83926       -0.46490       -0.85224
H         -0.30532       -2.57135       -0.33639
H         -1.59212       -3.33041        0.68205
H         -2.03715       -2.63535       -0.88379
H          4.29490        6.08710       -1.00844
C          5.55316        5.91117       -2.68002
C          4.94700        5.31004       -1.43449
C          4.43921        6.21337       -3.65888
H          6.09008        6.84501       -2.39854
H          6.30225        5.24073       -3.12921
H          3.88068        5.27925       -3.88858
H          3.74171        6.94855       -3.19862
C          5.02220        6.78601       -4.93610
H          5.80523        5.14854       -0.75592
H          5.60438        7.70391       -4.70643
H          5.68918        6.03393       -5.40928
H          4.19547        7.03424       -5.62846
C          5.96822        2.21307       -2.82605
C          6.50206        1.04482       -3.30780
C          5.70291        0.03648       -2.83794
C          4.71328        0.64140       -2.08266
N          4.88343        1.98173       -2.06095
C          3.55369       -0.08839       -1.49018
N          3.46601        0.01600       -0.02294
C          4.17869       -1.03236        0.75875
H          7.35734        0.95034       -3.96345
H          6.34421        3.18026       -3.06628
H          5.80877       -1.01702       -3.06060
H          3.54715       -1.13470       -1.83775
H          2.63973        0.36686       -1.92316
C          5.69558       -1.00881        0.47944
C          3.96037       -0.76209        2.25403
C          3.62147       -2.45016        0.45721
H          6.11703       -0.00341        0.69356
H          6.22424       -1.76011        1.10582
H          5.91054       -1.27571       -0.57149
H          2.88109       -0.80078        2.50417
H          4.49044       -1.52644        2.86267
H          4.35866        0.23460        2.53250
H          2.52789       -2.48386        0.64999
H          3.80438       -2.78568       -0.58211
H          4.11321       -3.20921        1.10233
Mg         3.30195        1.74282        0.36372
C          1.53469        2.82719       -3.49677
C          0.16317        2.73810       -3.32801
C         -0.08994        3.01987       -1.99796
C          1.13610        3.22137       -1.40669
N          2.11895        3.14556       -2.32386
C          1.39188        3.46312        0.05176
N          2.85585        3.47755        0.31219
C          3.31155        3.93487        1.63350
H         -0.57241        2.48444       -4.08395
H          2.06908        2.64653       -4.41997
H         -1.05820        3.03021       -1.51136
H          0.89671        4.40013        0.34920
H          0.94673        2.61183        0.62530
C          2.57036        3.20290        2.77502
C          4.79283        3.58617        1.74080
C          3.06651        5.44923        1.77066
H          2.65368        2.10292        2.65617
H          3.01315        3.48530        3.75778
H          1.49341        3.47506        2.80684
H          5.38386        4.08909        0.97250
H          5.20990        3.90058        2.72943
H          4.95342        2.49808        1.62062
H          3.49720        6.00208        0.92604
H          1.97833        5.68151        1.78195
H          3.50639        5.84860        2.70602
