95
speciation1547.ct
Na         0.90971       -0.04266       -0.00521
Mg        -2.46338        1.10253        1.49229
C         -5.10462       -0.44179        1.78176
C         -4.38869        0.75783        3.69221
O         -3.99529        0.15812        2.46163
C         -6.33214        0.42252        1.53052
C         -4.83459       -0.26519        4.75614
H         -4.80166       -0.64746        0.76054
H         -5.37952       -1.41411        2.26110
H         -3.51213        1.27876        4.11517
H         -5.16000        1.53972        3.54432
H         -4.01944       -0.98647        4.97767
H         -5.09757        0.26665        5.69640
H         -5.73779       -0.82875        4.44148
H         -6.01126        1.35030        1.01726
H         -7.01876       -0.14104        0.85735
H         -6.88898        0.64414        2.46099
H         -1.33547        1.83076        3.88831
C          0.44187        2.10164        2.70706
C         -0.88281        1.36949        2.99273
C          0.25383        3.58415        2.37421
H          1.11101        2.02423        3.59442
H          0.96351        1.60908        1.85960
H          1.25317        4.02264        2.14866
H         -0.39373        3.66513        1.48332
C         -0.36551        4.39369        3.51188
H         -0.62491        0.32259        3.25982
H         -1.39328        4.04297        3.73105
H          0.25888        4.31535        4.42705
H         -0.43161        5.46093        3.21335
C          3.22134        4.64785       -1.77582
C          2.23127        5.34497       -1.08705
C          1.14909        4.52248       -0.69446
C          1.39658        3.21046       -1.09149
N          2.89116        3.36201       -1.89213
C         -0.16684        1.43196       -0.72004
N         -1.46029       -0.04266       -0.00521
C         -1.42150       -1.55137       -0.02547
H          2.29647        6.40879       -0.88739
H          4.14093        5.06271       -2.17021
H          0.28432        4.88735       -0.18096
H          0.14642        0.92180       -1.66554
H         -0.96495        2.07539       -1.12695
C         -0.14910       -2.15943        0.58340
C         -2.56242       -2.11526        0.83562
C         -1.66089       -2.08858       -1.45156
H          0.04707       -1.71965        1.58543
H         -0.25961       -3.26027        0.70875
H          0.70826       -2.06167       -0.09681
H         -3.50608       -2.03722        0.29000
H         -2.48557       -3.21299        0.98760
H         -2.56331       -1.65505        1.84351
H         -2.61480       -1.67696       -1.85653
H         -0.84077       -1.82245       -2.14326
H         -1.77333       -3.19824       -1.43329
Na         2.91669       -0.46925        2.06362
Mg         2.89884        1.42072       -2.32963
H         -2.38870        3.50938       -0.01031
C         -3.98519        4.20075        1.25826
C         -3.26038        3.05657        0.50423
C         -4.45782        5.42065        0.40494
H         -4.87425        3.78499        1.77479
H         -3.29087        4.60071        2.02663
H         -4.93185        6.14461        1.10635
H         -3.60331        5.94652       -0.07674
C         -5.50681        5.10318       -0.66744
H         -3.95969        2.67016       -0.26662
H         -5.05676        4.54059       -1.51032
H         -6.35043        4.52647       -0.23512
H         -5.92213        6.05378       -1.07783
C          2.62065       -1.06178       -3.96662
C          2.75024       -2.43492       -3.91376
C          3.13802       -2.74123       -2.62896
C          3.21030       -1.54133       -1.95257
N          2.90651       -0.52058       -2.76713
C          3.56293       -1.39947       -0.51520
N          3.27971       -0.04266       -0.00521
C          4.51042        0.83449        0.19121
H          2.57996       -3.13488       -4.72057
H          2.32956       -0.48837       -4.83607
H          3.33008       -3.72725       -2.22632
H          4.59246       -1.75866       -0.37509
H          2.92380       -2.09644        0.05762
C          5.20433        1.23309       -1.13915
C          4.14818        2.11389        0.99202
C          5.60783        0.13279        1.03964
H          4.65211        1.93236       -1.75537
H          6.16208        1.76257       -0.93850
H          5.42578        0.34726       -1.76493
H          3.72634        1.86416        1.98810
H          5.05870        2.73421        1.16913
H          3.42980        2.76618        0.47757
H          5.20529       -0.22448        2.00623
H          6.11221       -0.69573        0.50926
H          6.43396        0.84634        1.26214
