68
speciation58.ct
Na         2.38127        0.08169        1.27437
Mg         2.68561        1.89727       -1.38009
C          2.64451        0.10278        4.44180
C          4.64769        0.91084        3.44398
O          3.45470        0.14500        3.26315
C          2.07523        1.44867        4.93191
C          5.69132        0.24026        4.34971
H          1.77862       -0.55669        4.24277
H          3.18681       -0.40182        5.26593
H          5.12291        1.06451        2.45403
H          4.44132        1.93126        3.82400
H          6.03177       -0.71755        3.90914
H          6.56871        0.91572        4.46020
H          5.30678        0.06070        5.37421
H          1.39133        1.87725        4.18830
H          1.49154        1.27627        5.86071
H          2.84195        2.20664        5.18478
C         -2.32163       -0.95284        0.28020
C         -3.10912        0.16051        0.46825
C         -2.33971        1.25688        0.11397
C         -1.10498        0.76463       -0.26414
N         -1.11662       -0.56990       -0.15871
C          0.06517        1.55008       -0.83414
N          1.31501        1.64337       -0.01030
C          1.46781        2.90226        0.75521
H         -4.13507        0.16241        0.80948
H         -2.60581       -1.98517        0.44084
H         -2.65270        2.28758        0.11988
H         -0.31261        2.54916       -1.10139
H          0.32753        1.08303       -1.80487
C          0.34910        3.00779        1.79798
C          2.81610        2.84726        1.47054
C          1.53895        4.15724       -0.14877
H          0.29914        2.05865        2.36907
H          0.52611        3.85679        2.49081
H         -0.63407        3.14347        1.31359
H          3.65622        2.69052        0.75626
H          3.01710        3.76389        2.06492
H          2.78259        2.02467        2.16948
H          2.36956        4.05462       -0.88212
H          0.60856        4.37373       -0.69970
H          1.74654        5.05585        0.47258
Na         0.50320       -1.53942       -0.64102
C          1.73936       -3.28424       -4.07563
C          3.08258       -3.55951       -4.20130
C          3.74670       -2.82407       -3.23847
C          2.84238       -2.13507       -2.54184
N          1.53745       -2.36590       -3.02846
C          3.15794       -1.22406       -1.39104
N          2.41141       -1.56920       -0.16906
C          2.67254       -2.80619        0.58541
H          3.52850       -4.22943       -4.92299
H          0.95212       -3.70889       -4.68980
H          4.81339       -2.81306       -3.05722
H          2.82408       -0.20821       -1.70157
H          4.24464       -1.15999       -1.18977
C          4.12481       -2.80849        1.09017
C          1.71754       -2.79719        1.79647
C          2.36480       -4.07555       -0.22368
H          4.31648       -1.88669        1.68327
H          4.31673       -3.69371        1.72135
H          4.82923       -2.82527        0.23287
H          0.65556       -2.78185        1.46365
H          1.86729       -3.69617        2.43195
H          1.88208       -1.90280        2.42264
H          1.31948       -4.05797       -0.60032
H          3.05636       -4.20286       -1.07804
H          2.48916       -4.97819        0.40999
