95
speciation1240.ct
Na         1.01586        0.02378        0.30294
Mg         2.28497        1.76370       -3.42259
C         -2.32700       -0.13045       -0.48862
C         -1.72746        1.03424        1.41762
O         -1.29831        0.09362        0.45173
C         -2.03539       -1.37137       -1.31429
C         -0.70810        1.12516        2.54256
H         -3.30499       -0.32514        0.00604
H         -2.46891        0.76885       -1.10209
H         -1.85260        2.04129        0.96058
H         -2.67762        0.70115        1.89699
H          0.26196        1.49942        2.15556
H         -1.07847        1.82705        3.32055
H         -0.56221        0.12586        3.00573
H         -2.03764       -2.26819       -0.66520
H         -2.82612       -1.48512       -2.08858
H         -1.04408       -1.30225       -1.79975
H          0.66619        3.76895       -5.78359
C          1.32161        2.58597       -7.37132
C          1.53722        3.11470       -5.88054
C          1.22740        3.71571       -8.44569
H          2.15248        1.96894       -7.67967
H          0.41292        1.95269       -7.43034
H          0.36142        4.38489       -8.25585
H          2.15283        4.34607       -8.43118
C          1.11014        3.19637       -9.90276
H          2.08398        4.04191       -6.06642
H          1.99764        2.58939      -10.18701
H          0.19463        2.58177      -10.03032
H          1.05199        4.04672      -10.61748
C          4.11045       -1.17976        0.16130
C          5.45040       -0.88929        0.01037
C          5.54156        0.47827       -0.10486
C          4.25035        0.95757       -0.02070
N          3.37990       -0.04757        0.15094
C          3.86361        2.38543       -0.07259
N          2.91927        2.67480       -1.16991
C          2.46896        4.09330       -1.21385
H          6.26992       -1.59424       -0.01695
H          3.69020       -2.17024        0.26765
H          6.44512        1.05930       -0.23374
H          3.40053        2.61360        0.90624
H          4.79220        2.97852       -0.18914
C          3.66262        5.06578       -1.38257
C          1.55706        4.25076       -2.43505
C          1.65486        4.48424        0.04074
H          4.26785        4.79055       -2.27331
H          3.30298        6.10954       -1.51027
H          4.32163        5.07307       -0.49041
H          0.68096        3.57691       -2.34362
H          1.19063        5.29697       -2.52778
H          2.11060        3.99909       -3.36008
H          0.78163        3.80886        0.16558
H          2.26621        4.45572        0.96427
H          1.28067        5.52721       -0.05434
Na         6.63900        3.41760       -3.85492
Mg         4.01923        2.34600       -2.79536
H          0.66595        0.11734       -4.39822
C         -1.14066        0.88241       -3.58494
C          0.39075        0.72047       -3.50382
C         -1.67015        1.56261       -4.83914
H         -1.57740       -0.13386       -3.60336
H         -1.48063        1.46025       -2.71817
H         -1.18162        1.10863       -5.72947
H         -2.76903        1.41371       -4.93740
C         -1.45224        3.05191       -4.72949
H          0.58364        0.13507       -2.58643
H         -2.12703        3.50805       -3.98444
H         -0.45991        3.20999       -4.29335
H         -1.60525        3.52897       -5.72293
C          3.01288       -1.26514       -3.22973
C          4.00468       -2.23190       -3.24965
C          5.15430       -1.57157       -3.55273
C          4.82899       -0.24229       -3.70747
N          3.49420       -0.03407       -3.50715
C          5.81467        0.79099       -4.03434
N          5.11918        2.01720       -4.42081
C          5.01135        2.25061       -5.85419
H          3.89129       -3.28672       -3.05415
H          1.98223       -1.49954       -3.01045
H          6.15363       -2.01380       -3.64358
H          6.48625        0.40930       -4.82834
H          6.44405        0.97162       -3.13830
C          4.18012        1.10253       -6.46718
C          4.41660        3.63244       -5.95269
C          6.37424        2.38123       -6.58375
H          3.19166        1.01377       -5.96227
H          4.07992        1.20875       -7.56094
H          4.68203        0.11974       -6.33222
H          5.12239        4.44040       -5.69700
H          4.02691        3.81515       -6.97810
H          3.72709        3.73156       -5.09369
H          6.96326        3.22544       -6.15863
H          7.01135        1.48477       -6.54949
H          6.19587        2.61881       -7.65590
