68
speciation42.ct
Na         1.39137        1.99881        0.23606
Mg         8.65596       -1.95959       -4.76270
C          1.17903        4.80454        0.90161
C          2.75314        4.30515       -0.83660
O          2.13063        3.89459        0.36626
C          0.11450        5.31794       -0.07634
C          3.78823        5.39950       -0.58578
H          0.64253        4.25922        1.70640
H          1.69579        5.65041        1.40323
H          3.30279        3.42749       -1.23815
H          2.03158        4.58895       -1.62819
H          4.53859        5.04739        0.15445
H          4.30863        5.64533       -1.53501
H          3.30266        6.32088       -0.20393
H         -0.40005        4.46750       -0.57023
H         -0.63496        5.91609        0.48365
H          0.55754        5.99185       -0.83856
C         -1.67692        1.10583        0.01186
C         -2.32975       -0.10391       -0.14514
C         -1.35168       -1.07323       -0.23472
C         -0.14810       -0.40930       -0.12563
N         -0.34725        0.90546        0.02241
C          1.21588       -1.02018       -0.14894
N          2.24500        0.03300       -0.00400
C          3.20791       -0.14778        1.10571
H         -3.40046       -0.25942       -0.18338
H         -2.14753        2.07270        0.12471
H         -1.50055       -2.13731       -0.35504
H          1.36803       -1.53935       -1.11781
H          1.25590       -1.78135        0.65348
C          4.01061       -1.45951        0.94858
C          4.20108        1.02579        1.04715
C          2.49121       -0.10889        2.47435
H          4.53846       -1.47691       -0.02920
H          4.76988       -1.54706        1.75595
H          3.36425       -2.35753        1.00845
H          3.67233        1.99299        1.16182
H          4.95540        0.94967        1.85988
H          4.73685        1.03696        0.07375
H          1.90714        0.83070        2.57759
H          1.79796       -0.96266        2.61008
H          3.23166       -0.15522        3.30191
Na         3.59933        0.09296       -1.94799
C          4.97196        1.13308       -4.81451
C          5.88217        0.83643       -5.80832
C          6.44405       -0.37783       -5.47823
C          5.85161       -0.76805       -4.29291
N          4.95365        0.15292       -3.89199
C          6.13316       -2.03548       -3.54862
N          7.55091       -2.08534       -3.15875
C          7.98369       -3.29550       -2.42377
H          6.10868        1.43850       -6.67797
H          4.35326        2.01927       -4.76794
H          7.19585       -0.91350       -6.04157
H          5.48129       -2.06271       -2.65235
H          5.87974       -2.87497       -4.22455
C          7.76160       -4.57508       -3.25958
C          9.49247       -3.15284       -2.15748
C          7.25909       -3.41788       -1.06641
H          8.27478       -4.49038       -4.24180
H          8.16615       -5.46282       -2.72721
H          6.68409       -4.76878       -3.43507
H          9.69883       -2.24142       -1.55526
H          9.88426       -4.03355       -1.60325
H         10.05153       -3.06909       -3.11495
H          7.41537       -2.50007       -0.45969
H          6.16960       -3.57770       -1.19571
H          7.64964       -4.28782       -0.49534
