110
speciation2436.ct
Na         1.05239       -0.03133       -0.07920
Mg         6.70195        0.15760        3.59900
C         -1.84051       -0.93063       -1.00815
C         -1.83656        1.25107       -0.25410
O         -1.26761       -0.03133       -0.07920
C         -1.24207       -2.31835       -0.83277
C         -1.22655        2.23236        0.73520
H         -2.93290       -1.02840       -0.80944
H         -1.67287       -0.59788       -2.05766
H         -1.67271        1.63503       -1.28658
H         -2.92801        1.21004       -0.03155
H         -0.14436        2.36406        0.52769
H         -1.73346        3.21685        0.63820
H         -1.36143        1.86408        1.77435
H         -1.37825       -2.66777        0.21245
H         -1.75359       -3.02998       -1.51642
H         -0.16137       -2.30518       -1.07689
H          9.07683       -1.10578        3.87783
C          7.95559       -2.21018        5.37112
C          8.27485       -0.90737        4.61838
C          7.46651       -3.31542        4.42375
H          8.87838       -2.56513        5.88175
H          7.18417       -2.01386        6.14643
H          6.53831       -2.98532        3.91499
H          8.24326       -3.52007        3.65487
C          7.18207       -4.61725        5.17955
H          8.66739       -0.17961        5.36068
H          8.10657       -5.00261        5.66096
H          6.40704       -4.45731        5.95893
H          6.81211       -5.38793        4.46913
C          4.31150       -1.22698        4.36618
C          2.99691       -1.51913        4.09150
C          2.70394       -0.91774        2.88425
C          3.87026       -0.31108        2.44755
N          4.84613       -0.48639        3.38026
C          4.05212        0.49317        1.16720
N          3.42239       -0.03133       -0.07920
C          3.82433       -1.38781       -0.55966
H          2.33063       -2.10377        4.71201
H          4.85114       -1.52831        5.25439
H          1.74964       -0.94622        2.37836
H          5.13274        0.67471        1.00292
H          3.59592        1.48610        1.35288
C          3.38563       -2.54157        0.37669
C          3.10569       -1.61889       -1.90014
C          5.34585       -1.48027       -0.76894
H          2.29525       -2.49973        0.58449
H          3.60085       -3.52650       -0.09251
H          3.95663       -2.55729        1.32293
H          3.38386       -0.84436       -2.64088
H          3.35711       -2.61805       -2.32027
H          2.00503       -1.58179       -1.75557
H          5.70132       -0.66629       -1.42844
H          5.88158       -1.41152        0.20164
H          5.61711       -2.45534       -1.23007
Na         4.21239        1.47333       -1.73111
Mg         3.70890        3.08866       -4.89238
C          2.32071        2.43843       -7.21894
C          2.11248        0.88711       -5.41413
O          2.91731        1.86792       -6.06201
C          1.02998        3.24880       -6.98943
C          2.03236       -0.42841       -6.19458
H          3.05738        3.12142       -7.69663
H          2.17217        1.65127       -7.98354
H          2.58755        0.65704       -4.43916
H          1.09511        1.23634       -5.16774
H          3.04728       -0.84616       -6.35601
H          1.42963       -1.16204       -5.61727
H          1.52933       -0.29000       -7.17339
H          0.40822        2.91448       -6.14262
H          0.40276        3.18693       -7.90500
H          1.26377        4.31385       -6.81862
H          7.35505        1.70189        1.50921
C          8.12090        3.00033        3.06482
C          7.09937        1.98292        2.55231
C          9.53014        2.40925        3.09565
H          8.11014        3.88606        2.38842
H          7.82806        3.33547        4.08324
H          9.54278        1.53929        3.78195
H          9.81933        2.07096        2.07648
C         10.55274        3.43582        3.57929
H          6.10787        2.48613        2.53282
H         10.59831        4.29989        2.88169
H         10.28654        3.80142        4.59388
H         11.55702        2.96421        3.62411
C          2.90288        6.04496       -4.95096
C          3.28431        7.12515       -4.16918
C          4.18280        6.64646       -3.23973
C          4.30514        5.29846       -3.49170
N          3.53568        4.94026       -4.52458
C          5.16375        4.32096       -2.77293
N          5.00238        2.97800       -3.38301
C          6.25231        2.30452       -3.80648
H          2.95489        8.14743       -4.28196
H          2.21874        6.08339       -5.78212
H          4.69056        7.21547       -2.47422
H          4.85718        4.28659       -1.73564
H          6.20457        4.69185       -2.82205
C          7.21294        2.09706       -2.60989
C          5.86655        0.91714       -4.34779
C          6.95883        3.08833       -4.93280
H          6.71300        1.52520       -1.79987
H          8.11378        1.52894       -2.92904
H          7.56574        3.05574       -2.18044
H          5.16480        1.00971       -5.19975
H          6.76364        0.36134       -4.69671
H          5.37215        0.31267       -3.56047
H          6.26560        3.24694       -5.78566
H          7.32302        4.07710       -4.59040
H          7.84620        2.52561       -5.29617
