96
speciation1079.ct
Na         3.76849        0.14414        0.95650
Mg         2.28896        4.82773       -1.48179
C          4.14613        1.36304        3.97010
C          6.10291        1.35956        2.75574
O          4.85492        0.71163        2.92628
C          2.77304        0.74944        4.19265
C          6.88717        0.72580        1.61828
H          4.70266        1.23665        4.92855
H          4.00827        2.44745        3.75471
H          5.97590        2.44302        2.53131
H          6.72026        1.22809        3.67538
H          6.34518        0.85614        0.65914
H          7.87905        1.22276        1.54003
H          7.04750       -0.35528        1.81462
H          2.86200       -0.33052        4.43271
H          2.28856        1.26245        5.05383
H          2.13638        0.88844        3.29561
H          3.74509        7.22593       -1.28400
C          5.37300        6.38237       -2.44344
C          4.18953        6.23248       -1.41430
C          4.87531        6.64326       -3.88801
H          6.07625        7.18514       -2.13307
H          5.99479        5.48427       -2.42204
H          4.03592        5.97750       -4.14780
H          4.51393        7.68536       -3.96649
C          5.95383        6.35333       -4.94298
H          4.66095        5.90471       -0.45826
H          6.86761        6.96083       -4.76710
H          6.22717        5.27975       -4.93606
H          5.55148        6.58733       -5.95078
C          2.65193       -1.67178       -1.58912
C          1.86614       -1.70132       -2.72206
C          1.36623       -0.42986       -2.89006
C          1.87363        0.33226       -1.85088
N          2.65865       -0.43557       -1.05573
C          1.60289        1.81216       -1.67027
N          2.81394        2.65508       -1.74370
C          3.67064        2.42841       -2.95707
H          1.68019       -2.55881       -3.35629
H          3.18363       -2.51363       -1.16738
H          0.71813       -0.09304       -3.68985
H          0.88308        2.14532       -2.43966
H          1.12025        1.96514       -0.67996
C          2.89719        2.72551       -4.26406
C          4.77701        3.40193       -2.83108
C          4.40772        1.05798       -3.04340
H          2.45772        3.74379       -4.21267
H          3.58110        2.70798       -5.13881
H          2.08505        2.00231       -4.43209
H          5.34040        3.26999       -1.87533
H          5.48341        3.38603       -3.68806
H          4.22799        4.32212       -2.82842
H          4.92615        0.82997       -2.08441
H          3.79026        0.22124       -3.36169
H          5.19221        1.09589       -3.83623
Mg         3.93075        2.05858       -0.25594
C          1.35852        6.79092       -3.73521
C         -0.15963        4.96277       -3.49426
O          1.12191        5.49873       -3.13694
C          0.23286        7.86868       -3.66078
C         -0.41502        4.83925       -5.01255
H          2.23925        7.24073       -3.24400
H          1.63731        6.64949       -4.80096
H         -0.25208        3.94828       -3.06988
H         -0.97885        5.56282       -3.05314
H          0.31423        4.16244       -5.49674
H         -1.44106        4.44152       -5.18406
H         -0.38488        5.82039       -5.53514
H          0.01126        8.22419       -2.64547
H          0.56256        8.77855       -4.20221
H         -0.72203        7.54969       -4.12250
C          0.34271        4.47705        4.94384
C         -0.31043        3.50401        4.21952
C          0.27638        3.45633        2.96565
C          1.24699        4.37426        2.91488
N          1.35717        5.05149        4.15305
C          2.09773        4.69086        1.69686
N          1.29881        5.10594        0.51590
C          0.54919        6.39423        0.70260
H         -1.13767        2.90292        4.57130
H          0.10514        4.76427        5.96168
H         -0.01763        2.81548        2.14739
H          2.66763        3.77216        1.43739
H          2.84549        5.47221        1.95247
C          1.46628        7.57964        1.09556
C         -0.06288        6.68672       -0.62428
C         -0.64557        6.32575        1.69263
H          2.35752        7.62645        0.44346
H          0.92171        8.54508        0.99961
H          1.80062        7.50042        2.15149
H         -0.71500        5.84043       -0.92055
H         -0.66251        7.62188       -0.61124
H          0.79575        6.79853       -1.28664
H         -1.31196        5.46873        1.45694
H         -0.33853        6.28446        2.74916
H         -1.25348        7.25649        1.62742
