81
speciation727.ct
Na         1.07601        0.06382        0.01223
Mg        -4.10083       -2.50726        2.23046
C         -6.52542       -3.59661        1.59251
C         -6.57348       -1.21845        1.77286
O         -6.03947       -2.44342        2.26522
C         -6.30398       -3.60628        0.07412
C         -8.06376       -1.03228        2.04641
H         -5.97275       -4.46390        2.01045
H         -7.59187       -3.78008        1.84174
H         -6.07174       -0.39207        2.31927
H         -6.36415       -1.07284        0.69325
H         -8.25991       -1.06257        3.13783
H         -8.37426       -0.03833        1.65588
H         -8.67107       -1.80088        1.52907
H         -5.23272       -3.43415       -0.15980
H         -6.60940       -4.59274       -0.33358
H         -6.92876       -2.84366       -0.43491
H          8.63003        3.27055       -0.30690
C          8.99982        3.60765       -2.39885
C          8.27659        2.86661       -1.27896
C          8.57484        3.13581       -3.79162
H          8.81066        4.69840       -2.29899
H         10.09199        3.43341       -2.28068
H          9.18581        3.67849       -4.54542
H          8.77299        2.04760       -3.89856
C          7.10307        3.42331       -4.07369
H          8.51109        1.78155       -1.31615
H          6.45119        2.87799       -3.36123
H          6.91294        4.51355       -3.99582
H          6.84845        3.09413       -5.10156
C         -2.08345        0.62312       -0.92382
C         -3.40707        0.43444       -0.59543
C         -3.40818       -0.26809        0.58737
C         -2.10172       -0.48207        0.92890
N         -1.29399        0.06382        0.01223
C         -1.61869       -1.18242        2.15139
N         -2.11223       -2.57274        2.19479
C         -1.65627       -3.33241        3.38883
H         -4.27108        0.77466       -1.15026
H         -1.71418        1.14484       -1.79649
H         -4.24358       -0.58809        1.15137
H         -0.51161       -1.15348        2.13056
H         -1.99577       -0.59965        3.01393
C         -2.12352       -2.66398        4.70506
C         -2.28097       -4.73248        3.31534
C         -0.11639       -3.48712        3.41062
H         -3.22659       -2.53223        4.70541
H         -1.84124       -3.28636        5.58125
H         -1.64623       -1.67503        4.86312
H         -1.95586       -5.25413        2.39047
H         -1.96987       -5.34549        4.19050
H         -3.38960       -4.66346        3.31280
H          0.24159       -3.95886        2.47114
H          0.40037       -2.51440        3.53914
H          0.19981       -4.12016        4.26759
Mg         6.24649        3.06495       -1.24764
C          4.21600       -1.03973        0.02837
C          5.55244       -0.69237        0.01033
C          5.59660        0.68126       -0.02119
C          4.28363        1.11151       -0.01991
N          3.44601        0.06382        0.01223
C          3.81459        2.51222       -0.02304
N          4.26616        3.25843       -1.21708
C          3.79634        4.67817       -1.18935
H          6.39685       -1.36613        0.02406
H          3.82716       -2.04920        0.05372
H          6.48400        1.29256       -0.02177
H          2.71127        2.47643        0.02610
H          4.22349        2.95471        0.90393
C          4.33168        5.44608        0.04514
C          4.32455        5.37823       -2.44835
C          2.24839        4.77096       -1.21384
H          5.44088        5.38032        0.09857
H          4.04123        6.51682       -0.00460
H          3.90272        5.06394        0.99478
H          3.94659        4.87233       -3.36289
H          3.98791        6.43962       -2.47352
H          5.43211        5.36687       -2.45606
H          1.83669        4.22555       -2.08912
H          1.78626        4.36903       -0.29153
H          1.92214        5.83209       -1.27324
