81
speciation646.ct
Na         2.20295        0.06161        0.52488
Mg         0.53746        5.46421        1.08364
C         -2.10983        5.92482        0.46789
C         -0.80766        7.90796        0.74669
O         -1.03441        6.56385        1.14808
C         -2.06246        5.99321       -1.06668
C         -1.93967        8.85224        1.16609
H         -2.07796        4.85505        0.75036
H         -3.08869        6.29869        0.84488
H          0.10500        8.25978        1.26456
H         -0.60532        7.99706       -0.33806
H         -2.07066        8.83023        2.26767
H         -1.68542        9.88886        0.85660
H         -2.89739        8.58246        0.67589
H         -1.08463        5.62168       -1.43605
H         -2.87156        5.36011       -1.48877
H         -2.24025        7.02522       -1.43313
H          2.48311        5.59894       -0.87579
C          2.92017        7.38991        0.16168
C          1.90541        6.36066       -0.33419
C          3.83272        7.81692       -1.00186
H          2.38100        8.26786        0.57319
H          3.54264        6.94051        0.96613
H          4.38787        6.92822       -1.38002
H          3.21808        8.22641       -1.83262
C          4.84692        8.87050       -0.57756
H          1.25704        6.81545       -1.10525
H          4.32356        9.78902       -0.23891
H          5.48808        8.48347        0.24227
H          5.49373        9.12711       -1.44396
C          0.55316        3.35563        3.27576
C          1.15327        2.17115        3.67147
C          2.06354        1.85001        2.69165
C          1.97915        2.84841        1.73632
N          1.05921        3.77536        2.09448
C          2.79457        2.92218        0.48369
N          2.55266        1.76340       -0.36049
C          3.22296        1.56443       -1.64676
H          0.95433        1.60600        4.57303
H         -0.20901        3.87676        3.83977
H          2.71316        0.98518        2.68193
H          3.86654        3.00589        0.74343
H          2.44836        3.78755       -0.05574
C          4.74627        1.45926       -1.46503
C          2.71845        0.21858       -2.22276
C          2.84929        2.68636       -2.61876
H          4.99041        0.64324       -0.74988
H          5.23101        1.22630       -2.43736
H          5.16713        2.40857       -1.08257
H          1.61387        0.22705       -2.34213
H          3.16896        0.00836       -3.21567
H          2.98429       -0.62659       -1.55239
H          1.74103        2.75033       -2.71143
H          3.23314        3.66051       -2.25721
H          3.27704        2.49051       -3.62327
Mg         0.81003        1.11169       -0.53593
C         -2.03142        0.82391        0.16484
C         -2.91208       -0.19787        0.41832
C         -2.22028       -1.38454        0.23681
C         -0.93605       -1.02818       -0.12631
N         -0.83358        0.31181       -0.17107
C          0.19491       -1.98763       -0.43550
N          1.35999       -1.72595        0.42614
C          2.13783       -2.80755        1.02797
H         -3.94796       -0.09895        0.71272
H         -2.23880        1.88925        0.22633
H         -2.59965       -2.38199        0.36117
H         -0.16953       -3.02501       -0.32598
H          0.50052       -1.83811       -1.49768
C          2.53883       -3.87550       -0.00572
C          3.43285       -2.18793        1.60530
C          1.30442       -3.38629        2.17536
H          3.15144       -3.42421       -0.81477
H          3.14168       -4.67050        0.48365
H          1.65244       -4.35707       -0.46924
H          3.19821       -1.38117        2.33340
H          4.04186       -2.95703        2.12668
H          4.05691       -1.74031        0.79726
H          1.05310       -2.56459        2.88531
H          0.35628       -3.80168        1.78698
H          1.86476       -4.17116        2.70979
