95
speciation1263.ct
Na         1.05602        0.01884       -0.08066
Mg         3.75711       -2.30543       -0.55441
C         -1.79103       -1.29429        0.07289
C         -1.81237        0.64664       -1.22896
O         -1.26398        0.01884       -0.08066
C         -1.45924       -2.26694       -1.07011
C         -1.23052        2.03960       -1.41065
H         -1.36029       -1.71722        0.99121
H         -2.88720       -1.26534        0.25916
H         -1.58180        0.09155       -2.16209
H         -2.91372        0.75571       -1.10793
H         -0.13986        1.97644       -1.61018
H         -1.71934        2.52544       -2.28380
H         -1.41108        2.65871       -0.50849
H         -0.37523       -2.24901       -1.30268
H         -1.74509       -3.29704       -0.76928
H         -2.03647       -2.02866       -1.98660
H          2.03547       -0.86612        1.36059
C          1.06531       -2.07643        2.53974
C          1.89096       -1.92596        1.21356
C          1.76504       -1.58152        3.81636
H          0.14130       -1.47128        2.46457
H          0.74410       -3.13489        2.66382
H          2.67328       -2.16555        3.98249
H          2.03276       -0.50684        3.71635
C          0.87794       -1.74861        5.05241
H          1.16303       -2.21685        0.43096
H         -0.02293       -1.10270        4.98160
H          0.55897       -2.80711        5.16387
H          1.44828       -1.45859        5.96130
C          7.39491       -1.85205       -0.35197
C          8.00967       -0.67220        0.02243
C          7.04714        0.25864        0.08771
C          5.88002       -0.41746       -0.24553
N          6.01551       -1.71728       -0.32360
C          4.64847        0.05316       -0.85097
N          3.42602        0.01884       -0.08066
C          3.39813        1.53822        0.36807
H          9.05797       -0.50306        0.17058
H          7.92142       -2.75723       -0.53800
H          7.28054        1.30878        0.24182
H          4.81622        0.74393       -1.67925
H          4.50149       -0.69879       -1.50860
C          3.48135        2.57736       -0.84381
C          2.13598        1.98330        1.15174
C          4.56072        1.93992        1.31793
H          2.71453        2.38699       -1.62034
H          3.40670        3.63110       -0.50161
H          4.47462        2.65090       -1.34466
H          2.09124        1.53524        2.16097
H          2.19428        3.08946        1.31994
H          1.18748        1.90015        0.60490
H          4.69087        1.21870        2.14908
H          5.47758        2.09523        0.75388
H          4.41871        2.95697        1.74981
Na         4.74102       -2.19220        4.31804
Mg         4.08935       -1.43620        1.10380
H          2.01705       -2.24566       -3.03153
C          4.12736       -1.90407       -3.66478
C          2.93676       -1.73206       -2.68910
C          3.89253       -1.28827       -5.04194
H          5.04232       -1.39926       -3.29273
H          4.37338       -2.97719       -3.73881
H          3.04191       -1.80108       -5.53196
H          3.65822       -0.19992       -4.95208
C          5.16181       -1.43135       -5.88549
H          2.68325       -0.64244       -2.65434
H          5.99636       -0.84817       -5.43300
H          5.46596       -2.49768       -5.93606
H          4.98803       -1.05412       -6.91189
C          3.54563       -5.08800       -1.33921
C          3.52556       -6.33312       -0.74841
C          3.61512       -6.12377        0.61089
C          3.67998       -4.75010        0.79960
N          3.63320       -4.13848       -0.39661
C          3.78387       -4.04553        2.16129
N          4.75267       -2.89125        2.28825
C          6.16332       -3.51910        2.34830
H          3.45905       -7.28462       -1.24963
H          3.49348       -4.88723       -2.39567
H          3.63531       -6.88172        1.38364
H          3.92366       -4.80503        2.94230
H          2.80276       -3.74833        2.45408
C          6.52960       -4.40630        1.09695
C          7.20965       -2.41966        2.56702
C          6.41525       -4.46284        3.58061
H          6.27321       -3.99609        0.11528
H          7.60565       -4.68666        1.09364
H          6.02931       -5.38828        1.11014
H          7.23246       -2.05132        3.60934
H          8.23588       -2.78942        2.32047
H          6.93132       -1.52653        2.03255
H          6.39127       -3.90928        4.54109
H          5.74410       -5.33203        3.68332
H          7.42974       -4.91993        3.50117
