81
speciation740.ct
Na         3.27891        0.98181       -1.76921
Mg         3.73765        4.13924        2.07354
C          3.54278        5.36463       -0.43379
C          5.16016        3.64257       -0.30901
O          4.43217        4.62460        0.39487
C          2.42627        4.53945       -1.08051
C          6.08571        2.92376        0.66199
H          3.06281        6.12652        0.21452
H          4.10996        5.93378       -1.20387
H          4.49789        2.88029       -0.76449
H          5.79698        4.11921       -1.08720
H          5.48742        2.40414        1.43908
H          6.68825        2.16821        0.11412
H          6.76651        3.65060        1.15069
H          1.85401        3.99977       -0.30433
H          1.72600        5.21802       -1.60983
H          2.82472        3.82820       -1.83221
H          3.55238        9.97281        6.92793
C          3.83716       11.74753        5.72180
C          4.37413       10.47988        6.37829
C          2.68455       11.41410        4.76590
H          3.47092       12.43440        6.51589
H          4.65936       12.24408        5.16371
H          3.04470       10.73018        3.96730
H          1.86694       10.90973        5.32818
C          2.11808       12.67251        4.11500
H          5.18676       10.71967        7.09561
H          1.73016       13.36798        4.88968
H          2.90369       13.18584        3.52131
H          1.28250       12.39665        3.43707
C          3.24833        2.29116        4.26452
C          2.70902        1.08289        4.64360
C          2.29473        0.46197        3.48893
C          2.63418        1.30494        2.44846
N          3.18137        2.44233        2.92688
C          2.38295        1.03178        0.99928
N          3.57773        0.52016        0.30014
C          3.91819       -0.92348        0.42885
H          2.61848        0.70142        5.65143
H          3.64856        3.03717        4.93761
H          1.81490       -0.50540        3.41517
H          2.12012        2.00028        0.54477
H          1.48047        0.41263        0.83253
C          2.68323       -1.84373        0.28244
C          4.90311       -1.26619       -0.70159
C          4.64065       -1.21426        1.75908
H          2.17051       -1.65671       -0.68537
H          2.98679       -2.91229        0.31761
H          1.96065       -1.69687        1.11083
H          5.81903       -0.64123       -0.62659
H          5.20783       -2.33643       -0.64909
H          4.44138       -1.09479       -1.69679
H          5.52938       -0.55677        1.87169
H          3.99391       -1.07885        2.63205
H          4.97679       -2.27319        1.79695
Mg         5.11026        9.19746        4.97290
C          2.15909        5.41902        4.17991
C          1.96508        6.56769        4.91519
C          2.90891        7.47029        4.48195
C          3.63838        6.83261        3.50445
N          3.18295        5.57585        3.31979
C          4.75001        7.45411        2.71993
N          5.82834        7.94648        3.60195
C          6.96157        8.59332        2.89381
H          1.21317        6.73102        5.67501
H          1.57121        4.51567        4.26851
H          3.03024        8.48208        4.83545
H          5.13192        6.69594        2.01014
H          4.29590        8.29511        2.15970
C          6.50326        9.82329        2.07803
C          7.95477        9.06943        3.96518
C          7.69060        7.59301        1.96732
H          5.97252       10.54895        2.73135
H          7.37902       10.33329        1.62161
H          5.83444        9.53871        1.24060
H          8.31628        8.21017        4.57048
H          8.83460        9.56227        3.49669
H          7.46890        9.79880        4.64910
H          8.02232        6.70212        2.54245
H          7.04708        7.25579        1.13023
H          8.58504        8.06827        1.50912
