110
speciation2666.ct
Na         5.50765        2.85332        2.23296
Mg         0.82598        4.87575       -3.19337
C         -0.13822        6.78706       -5.97394
C         -0.26265        4.56612       -6.64823
O          0.07343        5.41369       -5.51619
C         -1.50629        7.09751       -6.70239
C          0.41074        4.88698       -8.07131
H         -0.07842        7.48099       -5.12135
H          0.68228        7.09532       -6.66397
H         -0.11352        3.54494       -6.36772
H         -1.35456        4.53056       -6.81274
H          1.49152        5.03970       -8.10902
H          0.20174        4.06102       -8.78442
H          0.05877        5.81014       -8.56631
H         -2.37881        6.88073       -6.05900
H         -1.55728        8.16037       -7.03111
H         -1.68158        6.54143       -7.65013
H          6.44943        3.36194       -3.34865
C          6.73699        3.82588       -1.39485
C          5.75168        3.67277       -2.53957
C          7.38999        2.49740       -1.04249
H          7.53440        4.54456       -1.70478
H          6.24344        4.23917       -0.50607
H          6.60955        1.73955       -0.82798
H          8.01055        2.14482       -1.89959
C          8.25788        2.68308        0.19181
H          5.39652        4.69220       -2.79637
H          9.01938        3.47359        0.01780
H          7.61524        2.98795        1.04491
H          8.76335        1.73043        0.44481
C          2.97317        1.52757        3.07381
C          1.74630        0.99285        2.77288
C          1.55855        1.18332        1.40721
C          2.69954        1.82235        0.92928
N          3.55991        1.99066        1.97042
C          3.00126        2.23636       -0.54366
N          2.32023        3.41616       -1.25362
C          2.32703        4.53025       -0.24862
H          1.05379        0.51008        3.46513
H          3.41836        1.51864        4.07102
H          0.70281        0.87797        0.84263
H          4.10090        2.43063       -0.55268
H          2.84636        1.31301       -1.11618
C          3.75198        4.99071        0.20388
C          1.70475        5.61618       -0.95202
C          1.41850        4.35022        1.02034
H          4.35006        5.16335       -0.70165
H          3.70853        5.94363        0.76508
H          4.25097        4.24994        0.85416
H          0.85920        5.11515       -1.42460
H          1.13157        6.33477       -0.33557
H          2.40593        6.08910       -1.67016
H          0.41866        3.94476        0.73395
H          1.83134        3.78521        1.86208
H          1.26208        5.31862        1.53617
Na         3.60404        0.87818       -5.67153
Mg         3.68677        2.41758       -2.62437
C         -1.06058        7.18417       -1.92768
C          1.04843        8.12711       -2.52900
O          0.23017        6.92541       -2.47912
C         -1.85226        8.26546       -2.68317
C          1.33818        8.85035       -1.17053
H         -1.63858        6.24317       -1.96860
H         -1.00228        7.44003       -0.84666
H          2.03536        7.89657       -2.97956
H          0.61112        8.85726       -3.23387
H          2.11056        8.33162       -0.56273
H          1.73796        9.86960       -1.37061
H          0.44638        9.01532       -0.53169
H         -1.90177        8.00918       -3.75803
H         -2.87977        8.34204       -2.27654
H         -1.39693        9.27418       -2.56635
H          5.04370        0.21500       -3.47874
C          3.72146       -1.30646       -2.81969
C          4.35767        0.11311       -2.60758
C          2.76069       -1.75233       -1.70105
H          3.18675       -1.34354       -3.79136
H          4.54843       -2.04754       -2.86683
H          3.27996       -1.70863       -0.72244
H          1.88970       -1.07669       -1.68785
C          2.27542       -3.21213       -1.90892
H          4.98411        0.03461       -1.69618
H          1.78185       -3.32909       -2.89491
H          3.12418       -3.92194       -1.84003
H          1.54234       -3.46752       -1.11464
C         -1.05870        2.99516       -1.85925
C         -1.31139        1.64789       -1.76775
C         -0.48215        1.03826       -2.70291
C          0.22942        2.05655       -3.35321
N         -0.15218        3.25372       -2.83088
C          1.25450        1.78236       -4.45675
N          2.66195        2.28966       -4.35852
C          3.18765        3.48481       -5.08750
H         -1.94722        1.13385       -1.06190
H         -1.47864        3.74604       -1.20143
H         -0.40734       -0.02382       -2.88613
H          0.80118        2.01559       -5.41465
H          1.33112        0.67302       -4.52164
C          2.91966        4.76644       -4.25713
C          4.68078        3.30512       -5.18792
C          2.79798        3.61671       -6.54567
H          3.01316        4.56015       -3.19056
H          1.98423        5.20770       -4.51109
H          3.61642        5.59658       -4.49273
H          5.04435        2.74820       -6.07645
H          5.23154        4.27478       -5.22424
H          4.97988        2.56166       -4.44788
H          3.32464        2.91573       -7.22927
H          1.81048        3.25283       -6.75341
H          3.03523        4.63869       -6.85523
