83
speciation481.ct
Na         1.40651        2.01185        0.24595
Mg         8.70918       -2.13645       -4.74134
C          1.16574        4.84401        0.87391
C          2.81411        4.31110       -0.78191
O          2.13633        3.91986        0.39707
C          0.15915        5.36224       -0.16261
C          3.82699        5.41954       -0.50501
H          0.58349        4.31133        1.65432
H          1.66133        5.69119        1.39485
H          3.38881        3.43035       -1.14017
H          2.12527        4.57417       -1.60913
H          4.55564        5.08406        0.26366
H          4.37537        5.66332       -1.43885
H          3.31726        6.33806       -0.14947
H         -0.31658        4.51647       -0.70104
H         -0.63039        5.94587        0.35688
H          0.64605        6.04944       -0.88628
C         -1.66292        1.11594        0.06617
C         -2.32406       -0.09140       -0.06675
C         -1.35207       -1.06855       -0.15869
C         -0.14418       -0.40924       -0.07834
N         -0.33486        0.90845        0.06097
C          1.21681       -1.02366       -0.12013
N          2.24500        0.03300       -0.00400
C          3.24952       -0.15861        1.06504
H         -3.39465       -0.24276       -0.08672
H         -2.12470        2.08808        0.17080
H         -1.50791       -2.13440       -0.26323
H          1.35412       -1.55512       -1.08471
H          1.27024       -1.77496        0.69079
C          4.04254       -1.47531        0.88291
C          4.24732        1.00605        0.95504
C          2.58311       -0.12197        2.45737
H          4.54114       -1.49667       -0.10963
H          4.82758       -1.56341        1.66566
H          3.39751       -2.37296        0.96290
H          3.72251        1.97858        1.02366
H          5.00759        0.96136        1.76346
H          4.77844        0.97016       -0.02125
H          1.97905        0.80242        2.57385
H          1.91795       -0.99378        2.62174
H          3.35279       -0.14952        3.25812
Na         3.59933        0.09296       -1.94799
C          9.18789       -1.44517       -7.42100
C         10.30761       -3.37423       -6.70806
O          9.78516       -2.11916       -6.32142
C          7.95513       -2.16743       -8.01314
C         10.98385       -4.06049       -5.53497
H          8.90085       -0.43301       -7.06472
H          9.93136       -1.23350       -8.22251
H          9.51961       -4.06360       -7.08357
H         11.08655       -3.22133       -7.48713
H         10.23358       -4.35784       -4.78174
H         11.48927       -4.98503       -5.88442
H         11.73369       -3.38915       -5.06711
H          7.26908       -2.54282       -7.22731
H          7.39344       -1.46990       -8.66829
H          8.25388       -3.04210       -8.62240
C          4.93354        1.10218       -4.84518
C          5.85673        0.80146       -5.81733
C          6.44892       -0.37532       -5.42045
C          5.86741       -0.75015       -4.24514
N          4.95365        0.15292       -3.89199
C          6.14778       -1.98900       -3.46856
N          7.56849       -2.08310       -3.09851
C          7.91310       -3.27190       -2.27890
H          6.07006        1.37012       -6.71264
H          4.27757        1.96235       -4.83238
H          7.20656       -0.91219       -5.90371
H          5.50361       -1.96488       -2.56554
H          5.86361       -2.84224       -4.11214
C          7.62991       -4.58359       -3.04823
C          9.41921       -3.19927       -1.96703
C          7.15256       -3.30263       -0.93411
H          8.14634       -4.58602       -4.02701
H          7.97142       -5.46325       -2.46163
H          6.54579       -4.72501       -3.23037
H          9.65605       -2.28107       -1.38832
H          9.74451       -4.07967       -1.36768
H         10.01727       -3.17352       -2.89621
H          7.33430       -2.37132       -0.35692
H          6.06090       -3.43063       -1.07661
H          7.48606       -4.16716       -0.31956
