81
speciation439.ct
Na         1.05802       -0.07930        0.01858
Mg         4.12379       -1.79688       -0.74313
C         -1.70845        1.23207       -0.28785
C         -1.88241       -0.57695        1.19615
O         -1.26198       -0.07930        0.01858
C         -1.32926        2.29177        0.75866
C         -1.36491       -1.96485        1.54134
H         -1.22499        1.52020       -1.24479
H         -2.80418        1.24297       -0.48064
H         -1.67516        0.05244        2.08477
H         -2.97900       -0.66556        1.03084
H         -0.29416       -1.90902        1.81208
H         -1.91144       -2.35510        2.42636
H         -1.51519       -2.66511        0.69526
H         -0.23851        2.26488        0.95890
H         -1.60168        3.29872        0.38013
H         -1.88402        2.15315        1.70913
H          6.04107       -2.42887        1.27691
C          6.28981       -4.24753        0.27084
C          5.38760       -3.09769        0.69913
C          7.43512       -3.82529       -0.65373
H          6.73506       -4.69633        1.18890
H          5.67770       -5.02795       -0.22369
H          8.03863       -4.73293       -0.86793
H          7.01863       -3.45536       -1.60504
C          8.36239       -2.76568       -0.04661
H          4.74630       -3.54204        1.48426
H          7.83249       -1.80089        0.09411
H          8.76528       -3.10997        0.93009
H          9.21117       -2.58111       -0.73639
C          6.17219       -1.04901       -2.91610
C          6.43885        0.17988       -3.48181
C          5.60728        1.09175       -2.86559
C          4.88071        0.37568       -1.93975
N          5.22933       -0.91707       -1.96646
C          3.82907        0.92426       -1.00602
N          3.42802       -0.07930        0.01858
C          3.79162        0.29508        1.42048
H          7.14971        0.38573       -4.26999
H          6.63101       -1.98354       -3.20335
H          5.54213        2.15209       -3.06663
H          2.94572        1.22674       -1.60425
H          4.24520        1.84284       -0.55531
C          3.11825        1.61971        1.87187
C          3.24783       -0.79389        2.36478
C          5.31958        0.44261        1.58433
H          2.01455        1.54980        1.77086
H          3.35254        1.81263        2.94468
H          3.46726        2.50351        1.31338
H          3.67104       -1.77448        2.13663
H          3.49710       -0.56869        3.42299
H          2.14268       -0.86194        2.28067
H          5.85320       -0.39838        1.13423
H          5.70302        1.34671        1.07060
H          5.59771        0.52246        2.65743
Mg         1.36457       -1.11510       -1.66569
C         -0.16264       -0.28313       -4.14370
C          0.04809       -0.76943       -5.42348
C          1.06424       -1.70564       -5.33272
C          1.42401       -1.75654       -3.99717
N          0.68480       -0.88897       -3.29434
C          2.50558       -2.64770       -3.34184
N          2.54049       -2.58056       -1.83589
C          1.78709       -3.63332       -1.11213
H         -0.47951       -0.46927       -6.32015
H         -0.88457        0.47077       -3.85813
H          1.47902       -2.28232       -6.14787
H          3.48537       -2.35785       -3.75499
H          2.31013       -3.68746       -3.68748
C          2.43992       -5.01669       -1.32876
C          1.85233       -3.28525        0.36083
C          0.29556       -3.67165       -1.50781
H          3.52282       -4.96519       -1.10114
H          1.97190       -5.77689       -0.66802
H          2.32251       -5.37935       -2.36835
H          1.43096       -2.28200        0.53234
H          1.33821       -4.03308        0.99993
H          2.89004       -3.24870        0.65631
H         -0.17781       -2.68296       -1.32531
H          0.15079       -3.94364       -2.57091
H         -0.24101       -4.42252       -0.88543
