81
speciation619.ct
Na         1.53897       -0.33211       -0.90019
Mg         4.28324       -1.75412       -0.05963
C          3.96674       -4.60459        1.02626
C          1.95124       -3.59713        0.69919
O          3.33593       -3.34098        0.95418
C          5.41873       -4.39874        1.00191
C          1.20731       -4.05395        1.98283
H          3.74333       -5.09105        2.00063
H          3.71492       -5.27796        0.17302
H          1.47950       -2.70785        0.27969
H          1.77455       -4.35127       -0.10629
H          1.37470       -3.35812        2.82784
H          0.11648       -4.12866        1.79955
H          1.55167       -5.05760        2.31206
H          5.69943       -3.74799        1.84608
H          5.93375       -5.37786        1.09795
H          5.60903       -3.92072        0.02503
H          3.91262       -3.35175       -2.15745
C          3.56502       -1.67049       -3.46424
C          3.52072       -2.31781       -2.06808
C          2.74749       -2.49617       -4.49329
H          3.13745       -0.64589       -3.40753
H          4.62112       -1.60875       -3.79107
H          3.13713       -3.53629       -4.53479
H          1.67653       -2.54101       -4.18776
C          2.82577       -1.90305       -5.90167
H          2.44461       -2.38402       -1.80220
H          2.40694       -0.87612       -5.91617
H          3.88041       -1.87748       -6.24545
H          2.24243       -2.53331       -6.60854
C          6.51411        2.81658        1.29000
C          6.39046        3.65590        0.21206
C          5.33031        3.19219       -0.54590
C          4.83748        2.10074        0.04430
N          5.56289        1.78867        1.20757
C          3.63361        1.34299       -0.46592
N          3.21023        0.17359        0.34954
C          2.42489        0.50060        1.60502
H          7.01282        4.52105        0.01577
H          7.24598        2.90560        2.07948
H          4.95302        3.65250       -1.45080
H          3.85074        0.99693       -1.49640
H          2.80187        2.07154       -0.57346
C          1.32727        1.59362        1.40523
C          1.67598       -0.74848        2.01348
C          3.30007        0.90373        2.80444
H          1.75464        2.61618        1.35957
H          0.60904        1.59488        2.25973
H          0.72767        1.40878        0.48907
H          2.42627       -1.53327        2.18640
H          1.10612       -0.61917        2.95617
H          0.92482       -0.99463        1.23980
H          4.10388        0.15956        2.97451
H          3.71807        1.91823        2.67619
H          2.68244        0.96310        3.72799
Mg         6.64327        0.20215       -0.73230
C          9.65653        1.28089        1.48188
C         10.13388        0.44085        2.45364
C          9.20800       -0.59237        2.58999
C          8.18321       -0.36172        1.75600
N          8.41271        0.82539        1.02703
C          6.97730       -1.26334        1.55711
N          6.63255       -1.54823        0.13237
C          7.75204       -2.23668       -0.66804
H         11.08402        0.54227        2.96657
H         10.15483        2.17425        1.11643
H          9.30641       -1.43076        3.27180
H          6.11615       -0.73406        1.99447
H          7.13090       -2.19139        2.13302
C          8.29224       -3.57930       -0.07843
C          7.24399       -2.47239       -2.09380
C          9.04136       -1.36912       -0.84413
H          7.60953       -4.42320       -0.08659
H          9.12797       -3.96251       -0.72097
H          8.71927       -3.44277        0.93239
H          6.98335       -1.50054       -2.56792
H          8.03160       -2.95248       -2.72499
H          6.35755       -3.12978       -2.09548
H          8.81895       -0.36005       -1.24185
H          9.65936       -1.30031        0.06989
H          9.75218       -1.84741       -1.55898
