83
speciation315.ct
Na         1.20100        0.22203       -0.11995
Mg         0.40192       -3.39252       -2.35947
C          3.94125        1.70696        0.73747
C          4.23371       -0.60915        0.55361
O          3.35741        0.48225        0.31311
C          5.13143        2.11422       -0.14757
C          3.52986       -1.90482        0.23794
H          3.16747        2.49226        0.64094
H          4.24278        1.69004        1.81363
H          5.10776       -0.56403       -0.13219
H          4.57432       -0.65231        1.61606
H          3.17309       -1.88748       -0.81218
H          4.22305       -2.76223        0.37347
H          2.68009       -2.02082        0.92813
H          4.85149        2.02279       -1.21757
H          5.43193        3.16146        0.06302
H          6.01969        1.47386        0.04884
C          0.91806       -3.39242       -5.04516
C          1.21880       -2.57338       -6.10125
C          1.33809       -1.28964       -5.58785
C          1.11993       -1.37777       -4.21994
N          0.84837       -2.66332       -3.92596
C          1.27333       -0.20495       -3.22230
N          0.16104        0.15812       -2.29355
C         -0.88592        1.10239       -2.80380
H          1.34259       -2.89210       -7.12811
H          0.75812       -4.46657       -5.07961
H          1.58764       -0.40567       -6.14895
H          1.62557        0.68423       -3.76944
H          2.12005       -0.50488       -2.57505
C         -1.62998        0.51401       -4.02081
C         -1.94265        1.32821       -1.70618
C         -0.29415        2.48043       -3.15298
H         -2.13144       -0.44243       -3.75575
H         -2.42041        1.21953       -4.36634
H         -0.94590        0.34080       -4.87205
H         -1.48727        1.88383       -0.87694
H         -2.77866        1.96576       -2.07428
H         -2.38294        0.37410       -1.34309
H          0.24002        2.89965       -2.27326
H          0.39858        2.43434       -4.01278
H         -1.10676        3.18798       -3.43371
Na        -0.94102       -1.46180       -1.85776
C         -0.84993        0.99927        2.01946
C          0.76339       -0.46586        2.94958
O          0.09732       -0.02693        1.76621
C         -0.27321        2.25682        2.67598
C         -0.17754       -1.12071        3.98294
H         -1.25301        1.29233        1.05429
H         -1.74106        0.61719        2.56127
H          1.49838       -1.24237        2.67107
H          1.34603        0.35306        3.41675
H         -0.66801       -2.02122        3.55850
H          0.40677       -1.42595        4.87734
H         -0.96256       -0.42414        4.34239
H          0.62169        2.59940        2.11615
H         -1.03834        3.06069        2.66966
H         -0.00647        2.06685        3.73638
C          1.43915       -5.08474        2.34544
C          2.02252       -5.46007        1.15388
C          1.53040       -4.62129        0.17694
C          0.68147       -3.77776        0.77117
N          0.57155       -4.01596        2.13826
C         -0.07758       -2.71024        0.08434
N         -0.80147       -3.25315       -1.05503
C         -2.06237       -3.98114       -0.96602
H          2.73192       -6.27142        1.02350
H          1.61113       -5.54033        3.30987
H          1.78709       -4.64522       -0.88293
H          0.67500       -2.01527       -0.34449
H         -0.73117       -2.14051        0.74765
C         -3.12573       -3.12358       -0.26168
C         -2.53115       -4.26889       -2.40660
C         -1.83347       -5.30253       -0.22653
H         -3.28627       -2.17614       -0.82367
H         -4.08861       -3.67099       -0.20657
H         -2.81651       -2.86793        0.77082
H         -1.76215       -4.84332       -2.96837
H         -3.47590       -4.85453       -2.40562
H         -2.71212       -3.32083       -2.96071
H         -1.01528       -5.87408       -0.71939
H         -1.54750       -5.10772        0.82575
H         -2.75383       -5.91774       -0.21806
