96
speciation1352.ct
Na         6.29772       -0.63234        1.99249
Mg         2.08965        3.58171        3.14355
C          7.95943       -2.11586        4.27215
C          8.41808        0.15114        4.21229
O          8.07633       -0.98168        3.44057
C          7.61146       -3.33015        3.42435
C          8.50573        1.38052        3.32035
H          8.94331       -2.33170        4.74982
H          7.17641       -1.97801        5.05103
H          7.66530        0.34379        5.01019
H          9.42645        0.00646        4.66408
H          7.51227        1.60718        2.87995
H          8.83803        2.25231        3.92436
H          9.24062        1.21142        2.50493
H          8.36995       -3.46724        2.62374
H          7.59866       -4.23981        4.06199
H          6.61126       -3.19846        2.96163
H          1.87438        5.05637        0.74902
C          1.09148        3.21667       -0.07986
C          2.02940        3.96974        0.90695
C         -0.39478        3.48563        0.13065
H          1.34665        3.50078       -1.12593
H          1.21555        2.12923       -0.00328
H         -0.62566        4.54827       -0.06794
H         -0.97664        2.87364       -0.59273
C         -0.82307        3.12269        1.54806
H          3.07256        3.75114        0.58985
H         -0.60791        2.05130        1.74831
H         -0.27444        3.74843        2.28302
H         -1.91055        3.30655        1.66563
C          2.16866        1.04607        4.38913
C          2.53822       -0.26064        4.44202
C          3.17605       -0.53372        3.24832
C          3.15801        0.64072        2.51045
N          2.53953        1.61764        3.23232
C          3.72350        0.85329        1.12733
N          4.48079       -0.27548        0.51320
C          4.98554        0.05166       -0.85221
H          2.36833       -0.93040        5.26905
H          1.65046        1.60587        5.17510
H          3.60090       -1.47797        2.96002
H          4.36997        1.74180        1.22625
H          2.86324        1.06630        0.49964
C          5.79935        1.37192       -0.87668
C          5.91377       -1.08492       -1.30115
C          3.82374        0.16158       -1.87094
H          6.60500        1.34864       -0.11036
H          6.26555        1.53116       -1.87385
H          5.15897        2.26134       -0.70154
H          5.36357       -2.04879       -1.32884
H          6.31083       -0.88106       -2.32062
H          6.77371       -1.18175       -0.60562
H          3.23476       -0.78007       -1.89441
H          3.13651        0.99939       -1.63622
H          4.21703        0.35808       -2.89053
Mg         1.26562        6.57187        4.01881
C          1.74539        8.54553        2.32029
C         -0.23784        7.23096        2.03700
O          1.14670        7.25950        2.34703
C          0.94985        9.70160        2.94346
C         -0.46955        7.41400        0.54478
H          2.68844        8.45620        2.89862
H          2.03429        8.79231        1.27932
H         -0.62263        6.22676        2.31431
H         -0.84185        7.93954        2.64281
H          0.10388        6.64998       -0.01565
H         -1.55012        7.30431        0.31513
H         -0.13206        8.41616        0.21686
H          0.67582        9.46423        3.98762
H          1.57978       10.61492        2.94154
H          0.03681        9.93404        2.35698
C          0.06380        8.10420        6.43731
C         -0.44394        7.58531        7.61235
C         -0.29728        6.20550        7.53017
C          0.28635        5.96014        6.29739
N          0.48563        7.09956        5.64568
C          0.78986        4.66169        5.68937
N          1.97470        4.91167        4.81587
C          3.26603        5.17521        5.56623
H         -0.84550        8.14703        8.44391
H          0.12920        9.15463        6.18969
H         -0.57230        5.48419        8.28358
H          0.94859        3.87565        6.45112
H         -0.03149        4.29133        5.03935
C          3.63153        4.02759        6.53573
C          4.39918        5.32518        4.54474
C          3.24653        6.49238        6.39781
H          3.68823        3.05711        6.00500
H          4.61887        4.22305        7.01093
H          2.90994        3.94409        7.37644
H          4.18562        6.15644        3.84136
H          5.36009        5.55143        5.06366
H          4.53337        4.38586        3.97180
H          3.02335        7.36996        5.75533
H          2.53759        6.44795        7.24896
H          4.23727        6.67601        6.86983
