110
speciation2304.ct
Na         0.67918        0.28057        0.02428
Mg         2.22473        4.48743       -1.18269
C         -0.95698       -1.29364        1.50283
C          0.15849       -2.69172       -0.07554
O         -0.47147       -1.44267        0.17777
C          0.04796       -1.63868        2.61064
C         -0.84155       -3.85605       -0.07248
H         -1.19408       -0.21582        1.61881
H         -1.91969       -1.82926        1.63997
H          0.60805       -2.65971       -1.08996
H          1.00053       -2.89007        0.61883
H         -1.59814       -3.71906       -0.87506
H         -0.30714       -4.81370       -0.25079
H         -1.36543       -3.94395        0.90175
H          1.01234       -1.11131        2.43635
H         -0.36094       -1.32595        3.59257
H          0.22455       -2.73401        2.66634
H          3.64431        6.79514       -0.78423
C          4.84369        5.69567       -2.20385
C          3.90435        5.74334       -1.01348
C          6.04958        6.60500       -1.96329
H          5.16859        4.64746       -2.36660
H          4.28816        6.04032       -3.09988
H          5.70059        7.64583       -1.78180
H          6.61781        6.26242       -1.06959
C          6.96973        6.60722       -3.17450
H          4.43554        5.35793       -0.11569
H          7.37001        5.58705       -3.35346
H          6.40812        6.94533       -4.07102
H          7.81450        7.30476       -3.00051
C         -2.07278        2.68018       -0.03656
C         -3.13263        3.20151       -0.74242
C         -2.67449        3.47244       -1.98777
C         -1.30852        3.25202       -1.97959
N         -1.00882        2.44253       -0.86750
C         -0.49564        3.84305       -3.18875
N          0.60373        4.83822       -2.84071
C          0.17311        6.30370       -2.90270
H         -4.14715        3.35558       -0.40919
H         -2.14553        2.40120        1.00401
H         -3.27594        3.83417       -2.82032
H         -1.23878        4.30944       -3.86326
H         -0.13575        3.06355       -3.89642
C         -0.92798        6.65195       -1.87105
C          1.39225        7.16179       -2.57396
C         -0.31169        6.74322       -4.31762
H         -0.60079        6.42908       -0.83779
H         -1.15529        7.74273       -1.91890
H         -1.87638        6.11803       -2.08581
H          2.21606        6.94734       -3.28697
H          1.16864        8.24351       -2.62425
H          1.69379        6.94199       -1.53963
H          0.46666        6.54443       -5.07954
H         -1.25787        6.26167       -4.63005
H         -0.51146        7.83063       -4.32364
Na         1.87865        4.83078       -4.75102
Mg         4.26623        2.13202       -3.02883
C          4.54464        4.86118       -6.38725
C          2.67753        4.63655       -7.78952
O          3.14359        4.54243       -6.44813
C          4.89717        6.32456       -6.68499
C          1.23504        4.17351       -7.83568
H          4.88640        4.61690       -5.36069
H          5.12569        4.18280       -7.06059
H          2.71863        5.66484       -8.19826
H          3.25850        3.93702       -8.43632
H          0.60736        4.85393       -7.22447
H          0.87507        4.19399       -8.88729
H          1.15955        3.13709       -7.44595
H          4.29362        6.99922       -6.04523
H          5.97468        6.49903       -6.48013
H          4.72631        6.57666       -7.75350
H          2.31504        5.01922        1.69492
C          0.15797        4.69006        1.69831
C          1.44897        5.23735        1.02873
C         -0.14075        5.12172        3.14076
H         -0.70370        4.94227        1.05088
H          0.21592        3.60900        1.81210
H         -1.06648        4.58684        3.46015
H          0.67714        4.80434        3.82607
C         -0.39996        6.60809        3.28025
H          1.34794        6.33587        0.93548
H          0.51785        7.17922        3.04011
H         -1.22687        6.90554        2.60200
H         -0.69969        6.82452        4.32815
C          4.06457       -1.04807        0.85061
C          5.44046       -0.89738        0.74237
C          5.67251        0.40795        0.41348
C          4.43903        1.00678        0.30268
N          3.42268        0.11838        0.60459
C          4.28174        2.41458       -0.20780
N          3.35190        2.50647       -1.35240
C          2.17665        1.63789       -1.26303
H          6.20996       -1.65737        0.81539
H          3.56660       -1.99422        0.99173
H          6.62215        0.88013        0.19243
H          3.93265        3.07762        0.61676
H          5.25503        2.85009       -0.50955
C          1.55144        2.22179        0.10755
C          1.47072        1.96503       -2.51183
C          2.35495        0.05185       -1.64494
H          1.45702        3.24918       -0.06066
H          0.60058        2.03277        0.61863
H          2.15621        2.04846        1.02310
H          1.99874        1.61754       -3.43159
H          0.45742        1.50625       -2.52849
H          1.59665        2.99837       -2.62222
H          3.33930       -0.15457       -2.10829
H          2.12236       -0.74718       -0.91736
H          1.58475       -0.36590       -2.34436
