95
speciation1831.ct
Na         4.00466        0.48350       -1.23598
Mg         4.91408        5.57295       -2.89800
C          5.24868        8.18780       -3.61441
C          4.09576        7.83216       -1.55438
O          4.29815        7.41258       -2.89522
C          6.61359        8.36812       -2.93518
C          3.37108        9.17821       -1.46275
H          5.42768        7.65242       -4.57160
H          4.81668        9.16930       -3.90199
H          3.44258        7.08199       -1.06373
H          5.03622        7.83871       -0.96749
H          2.38421        9.11533       -1.96750
H          3.21148        9.43690       -0.39496
H          3.96913        9.98986       -1.92323
H          7.03569        7.38655       -2.64108
H          7.31022        8.86504       -3.64238
H          6.53725        9.02142       -2.04201
H          4.68162       -0.01219       -4.48701
C          3.45415       -1.23762       -3.19294
C          4.38221       -0.01078       -3.42571
C          4.19870       -2.56968       -3.43180
H          3.09976       -1.27483       -2.14315
H          2.56805       -1.15307       -3.86031
H          4.60755       -2.57402       -4.46043
H          5.06631       -2.65340       -2.73202
C          3.31688       -3.81472       -3.23627
H          5.28455       -0.29182       -2.86658
H          3.64053       -4.39567       -2.34442
H          2.24422       -3.55607       -3.11810
H          3.41758       -4.48453       -4.11727
C          7.16291        0.09744       -1.11104
C          8.44320        0.61711       -1.16283
C          8.29854        1.96977       -1.33135
C          6.92859        2.20702       -1.42530
N          6.22941        1.07702       -1.29295
C          6.36500        3.59278       -1.67953
N          5.54587        3.68591       -2.90085
C          6.41541        3.58246       -4.15052
H          9.37163        0.05357       -1.05304
H          6.92431       -0.93657       -0.94570
H          9.11096        2.67904       -1.41009
H          7.15992        4.35646       -1.67007
H          5.74556        3.93264       -0.87143
C          7.09299        2.20370       -4.36532
C          5.53434        3.78698       -5.35156
C          7.52387        4.66680       -4.22409
H          6.38250        1.37879       -4.23752
H          7.52208        2.11442       -5.38841
H          7.97025        2.03318       -3.72558
H          4.99873        4.75380       -5.29726
H          6.11309        3.74720       -6.30605
H          4.86590        2.92531       -5.34878
H          7.08613        5.67862       -4.17929
H          8.29017        4.54856       -3.43367
H          8.08444        4.57490       -5.18158
Na         2.95316        4.69115       -0.82540
Mg         3.89874        2.29012       -2.79294
H          1.55607        2.23567       -4.56280
C          2.55217        3.04322       -6.19667
C          2.42822        2.90579       -4.64105
C          2.94065        1.72527       -6.90822
H          1.58287        3.39177       -6.61747
H          3.27088        3.83637       -6.47265
H          3.87764        1.31454       -6.48274
H          2.13664        0.97340       -6.75908
C          3.16850        1.93446       -8.40741
H          2.14619        3.92321       -4.28640
H          2.25049        2.31383       -8.90546
H          3.99689        2.65773       -8.57995
H          3.45182        0.96820       -8.88533
C          5.08110       -0.89879        1.06384
C          5.83550       -0.37167        2.07160
C          5.56106        1.01472        2.10370
C          4.60306        1.23567        1.12132
N          4.41234        0.09838        0.49305
C          3.95616        2.54537        0.66702
N          3.12580        2.57811       -0.64553
C          1.68165        2.17740       -0.48434
H          6.61629       -0.87863        2.62414
H          5.12255       -1.91547        0.68632
H          6.06478        1.76410        2.70065
H          3.36501        2.93899        1.52610
H          4.73699        3.28765        0.66034
C          0.96400        2.93843        0.66933
C          0.95900        2.61189       -1.75485
C          1.44794        0.65381       -0.37341
H          1.04447        4.03922        0.52365
H         -0.12410        2.69328        0.66634
H          1.31739        2.67546        1.68109
H          1.42504        2.04678       -2.55642
H         -0.11684        2.33217       -1.73388
H          1.04312        3.70314       -1.94515
H          1.99388        0.16084        0.44004
H          1.68547        0.15668       -1.33274
H          0.37184        0.44709       -0.18999
