96
speciation1357.ct
Na         1.02804       -0.07098        0.06461
Mg         4.72142       -5.49140        1.62909
C         -1.77144        0.85883       -0.89166
C         -1.92929        0.07444        1.32100
O         -1.29196       -0.07098        0.06461
C         -1.51098        2.32865       -0.53357
C         -1.36963       -0.93782        2.30550
H         -1.23316        0.64665       -1.83939
H         -2.84922        0.68547       -1.10523
H         -1.76281        1.07570        1.76697
H         -3.01855       -0.13119        1.21585
H         -0.28903       -0.74641        2.47568
H         -1.90292       -0.84877        3.27623
H         -1.51524       -1.96369        1.91448
H         -0.43625        2.48533       -0.30375
H         -1.79562        2.97223       -1.39191
H         -2.12870        2.65469        0.32830
H          6.73430       -7.14235        1.76003
C          5.25051       -8.08794        3.04164
C          5.96299       -6.85260        2.50502
C          4.53933       -8.85570        1.92383
H          6.00276       -8.74978        3.52443
H          4.51027       -7.76795        3.80639
H          3.78581       -8.20372        1.44026
H          5.27363       -9.17074        1.15144
C          3.84076      -10.09514        2.47768
H          6.46592       -6.32546        3.34299
H          4.58572      -10.78645        2.92669
H          3.09798       -9.80814        3.25273
H          3.31210      -10.62555        1.65810
C          5.40071       -0.80837       -3.42689
C          5.45016        0.41715       -4.05405
C          4.87306        1.32975       -3.18368
C          4.47900        0.60463       -2.07511
N          4.84169       -0.66043       -2.21950
C          3.75317        1.07611       -0.84107
N          3.39804       -0.07098        0.06461
C          3.58331        0.29746        1.50168
H          5.85735        0.60853       -5.03655
H          5.74693       -1.75513       -3.82258
H          4.74628        2.38855       -3.35671
H          2.82036        1.59422       -1.13564
H          4.41668        1.83297       -0.37594
C          2.65179        1.44498        1.96710
C          3.24505       -0.92803        2.31791
C          5.02264        0.73897        1.79686
H          1.58149        1.21236        1.80965
H          2.80287        1.63417        3.05415
H          2.88636        2.38958        1.43291
H          3.84767       -1.78709        1.95832
H          3.42544       -0.77302        3.40245
H          2.16430       -1.13110        2.22294
H          5.64855        0.36233        0.98453
H          5.16597        1.83338        1.71323
H          5.34820        0.45788        2.82533
Mg         4.33889       -1.49356       -0.69154
C          7.16251       -1.58560        1.01449
C          6.52501       -2.95552       -0.79374
O          6.04571       -2.17747        0.28593
C          7.98864       -2.61027        1.79480
C          7.64994       -2.34606       -1.65271
H          7.80825       -0.93629        0.38051
H          6.85218       -0.95637        1.85607
H          6.74992       -3.98200       -0.46207
H          5.66282       -3.00523       -1.49135
H          8.62284       -2.37491       -1.12464
H          7.74869       -2.93342       -2.58358
H          7.43297       -1.28803       -1.91779
H          8.40818       -3.39500        1.14007
H          8.83651       -2.09400        2.30379
H          7.35039       -3.07053        2.57984
C          1.83079       -2.03060       -2.17638
C          0.95892       -3.02271       -2.56924
C          1.48947       -4.20821       -2.10176
C          2.64241       -3.85228       -1.41387
N          2.86440       -2.55750       -1.48424
C          3.49078       -4.72166       -0.58993
N          3.51028       -4.16357        0.77464
C          2.19428       -4.37404        1.53363
H          0.03115       -2.88920       -3.10278
H          1.69430       -0.96790       -2.34690
H          1.04963       -5.18687       -2.20257
H          3.18228       -5.78087       -0.62724
H          4.50955       -4.72397       -1.00717
C          1.64924       -5.82553        1.45657
C          2.40144       -4.11605        3.04497
C          1.03825       -3.45879        1.04055
H          2.37621       -6.53978        1.87941
H          0.70645       -5.91585        2.04317
H          1.36950       -6.12180        0.42634
H          2.70672       -3.10196        3.29931
H          1.44370       -4.27383        3.59418
H          3.15281       -4.81154        3.46887
H          1.35025       -2.42559        0.84233
H          0.56086       -3.83330        0.12370
H          0.20261       -3.46245        1.76834
