110
speciation2313.ct
Na         7.51479        1.69379        1.80517
Mg         2.39808        4.93788       -0.62982
C          9.73399       -0.08824        3.14995
C          7.78042       -0.87961        4.12811
O          8.33993        0.09985        3.27517
C         10.31124        0.96404        2.21218
C          6.28512       -0.67211        4.29433
H         10.23261        0.04024        4.13682
H          9.96199       -1.08732        2.71322
H          7.93789       -1.90009        3.70904
H          8.23405       -0.80283        5.14281
H          5.76793       -0.79499        3.32046
H          5.89325       -1.43291        5.00518
H          6.08056        0.33792        4.70537
H         10.09618        1.98256        2.59930
H         11.41234        0.83490        2.13896
H          9.87288        0.85823        1.19709
H          2.59101        4.82011        1.96642
C          1.62609        6.75441        1.97024
C          2.56739        5.72709        1.33005
C          0.17472        6.26542        2.02981
H          1.98349        6.96381        3.00220
H          1.68368        7.70490        1.41260
H         -0.19325        6.06135        1.00175
H          0.11875        5.32799        2.62520
C         -0.73096        7.31465        2.67987
H          3.58896        6.16150        1.31879
H         -0.40883        7.51625        3.72444
H         -0.70110        8.26452        2.10391
H         -1.77950        6.94862        2.70045
C          7.47754        4.36542        0.01521
C          6.86116        5.24261       -0.85935
C          5.61219        4.73520       -1.12372
C          5.51903        3.56520       -0.41207
N          6.67186        3.32209        0.30350
C          4.34024        2.64754       -0.38087
N          3.01923        2.97749       -1.06236
C          2.06123        1.86175       -0.70509
H          7.27472        6.15768       -1.26029
H          8.47238        4.48746        0.42058
H          4.86003        5.16865       -1.76101
H          4.75608        1.69621       -0.74554
H          4.17871        2.59027        0.70584
C          1.85539        1.72392        0.81331
C          0.66818        2.18759       -1.21176
C          2.47908        0.48678       -1.37233
H          1.61901        2.72586        1.23065
H          0.99676        1.05028        1.02739
H          2.71344        1.26172        1.32774
H          0.63452        1.77826       -2.18261
H         -0.14212        1.55791       -0.80048
H          0.41764        3.26876       -1.13189
H          3.52296        0.16000       -1.24025
H          1.84803       -0.34603       -1.00380
H          2.35546        0.51331       -2.47817
Na         4.66190        1.78920       -6.34541
Mg         2.40279        3.14479       -3.04405
C          7.08147        2.07129       -8.37399
C          5.54858        0.51009       -9.10672
O          6.16189        1.07683       -7.96558
C          7.73760        2.71618       -7.16271
C          4.55806       -0.56625       -8.68704
H          7.89894        1.60211       -8.96872
H          6.58406        2.86712       -8.97422
H          5.01157        1.27671       -9.70965
H          6.32017        0.00367       -9.73213
H          3.72431       -0.11726       -8.10846
H          4.14254       -1.05880       -9.59285
H          5.06533       -1.33599       -8.06717
H          8.22927        1.94385       -6.53470
H          8.50829        3.44039       -7.50538
H          6.98329        3.25908       -6.55751
H          1.73787        6.44315       -2.83960
C          1.41410        8.07195       -1.50156
C          1.37225        6.55949       -1.80239
C          2.83427        8.64848       -1.57736
H          0.77649        8.61503       -2.23781
H          0.97262        8.26037       -0.50880
H          3.49695        8.09416       -0.88092
H          3.22580        8.53878       -2.61342
C          2.85919       10.13206       -1.19628
H          0.30378        6.25476       -1.79177
H          2.22718       10.73286       -1.88546
H          2.49100       10.26968       -0.15681
H          3.90001       10.51732       -1.25111
C         -0.77059        3.08097       -3.88154
C         -1.44236        2.12636       -4.65280
C         -0.46202        1.36159       -5.26951
C          0.73601        1.87603       -4.83407
N          0.55199        2.86492       -3.96562
C          2.15362        1.50873       -5.18574
N          3.12957        2.51692       -4.69032
C          3.16709        3.86052       -5.45856
H         -2.50246        1.97757       -4.70578
H         -1.24122        3.77516       -3.20306
H         -0.61499        0.49493       -5.91277
H          2.22728        1.41919       -6.29209
H          2.37948        0.50150       -4.77813
C          1.86313        4.69581       -5.43129
C          4.24653        4.73629       -4.80303
C          3.52456        3.77892       -6.98289
H          1.56091        4.94329       -4.40262
H          2.00651        5.67885       -5.93485
H          1.04778        4.20080       -5.99860
H          5.23419        4.22971       -4.83023
H          4.34644        5.71363       -5.32825
H          3.97015        4.94261       -3.75396
H          4.59100        3.57519       -7.19558
H          2.86565        3.08467       -7.54157
H          3.40790        4.77111       -7.47115
