110
speciation2569.ct
Na         2.71459        3.08934        1.69390
Mg        -0.45473        7.60630       -2.14959
C         -3.00388        6.14206       -2.45991
C         -1.85006        5.72030       -0.43620
O         -1.73596        6.09555       -1.80169
C         -4.11509        6.94240       -1.75347
C         -2.35791        4.29365       -0.20311
H         -2.84409        6.59032       -3.45865
H         -3.36644        5.10818       -2.65856
H         -0.84245        5.66214       -0.04801
H         -2.41286        6.46915        0.16288
H         -1.70229        3.56797       -0.72812
H         -2.31716        4.07363        0.88754
H         -3.40560        4.15976       -0.53492
H         -3.78314        7.97104       -1.53968
H         -5.01135        6.99388       -2.40731
H         -4.43675        6.45867       -0.80695
H         -2.23971        9.51727       -1.47706
C         -0.51283       10.66151       -0.95485
C         -1.22505        9.31584       -1.08793
C         -0.37635       11.35616       -2.31130
H         -1.10286       11.31272       -0.27278
H          0.46748       10.51354       -0.46762
H          0.20291       10.71637       -3.00976
H         -1.39142       11.52024       -2.73339
C          0.31908       12.70982       -2.17909
H         -1.31366        8.89599       -0.06256
H         -0.24335       13.37147       -1.48548
H          1.35481       12.58111       -1.79911
H          0.36391       13.20132       -3.17411
C          4.07011        5.61950        2.34331
C          4.42701        6.93252        2.48160
C          3.49208        7.65150        1.79716
C          2.60828        6.74482        1.21016
N          2.94943        5.45104        1.59737
C          1.41303        7.28422        0.35621
N          1.43970        7.21725       -1.17218
C          2.68464        7.88070       -1.76301
H          5.27003        7.33188        3.03196
H          4.62540        4.80479        2.78941
H          3.49205        8.72542        1.74323
H          1.24616        8.33951        0.62939
H          0.54969        6.79082        0.78225
C          3.96918        7.02435       -1.57512
C          2.53583        8.00710       -3.26720
C          2.96564        9.32747       -1.26451
H          3.85917        6.01653       -2.01978
H          4.82574        7.49734       -2.10673
H          4.31651        6.93158       -0.54115
H          1.83678        8.82684       -3.41573
H          3.47028        8.35547       -3.76134
H          2.22947        7.04680       -3.73019
H          2.17696       10.02728       -1.57974
H          3.08847        9.41796       -0.18472
H          3.90251        9.71733       -1.72203
Na         2.19213        4.96986       -1.17557
Mg         4.04453        2.39368       -2.80442
C          6.48655        1.90163       -4.06224
C          4.94532        3.04651       -5.40462
O          5.11685        2.07314       -4.38903
C          7.14850        3.13522       -3.42942
C          3.46904        3.21107       -5.73130
H          6.54067        1.06654       -3.34320
H          7.06899        1.55535       -4.94403
H          5.31852        4.04625       -5.10064
H          5.45604        2.70963       -6.33490
H          2.92853        3.62182       -4.85312
H          3.35716        3.92299       -6.57798
H          3.02384        2.23675       -6.02118
H          6.54793        3.51779       -2.58473
H          8.15656        2.86360       -3.05349
H          7.28556        3.94851       -4.17046
H          0.40663        8.68114       -4.71014
C         -1.31634        8.22830       -5.62702
C         -0.30361        7.86987       -4.52375
C         -0.66061        8.40675       -7.03452
H         -2.12843        7.47922       -5.68044
H         -1.75423        9.21462       -5.35768
H         -1.42652        8.80310       -7.73499
H          0.16264        9.15994       -6.99300
C         -0.10902        7.11831       -7.65377
H          0.16102        6.90181       -4.80092
H          0.71721        6.69402       -7.04821
H         -0.92041        6.36836       -7.75882
H          0.29372        7.33458       -8.66881
C          4.28525       -0.19277        1.33806
C          5.23436       -0.52732        0.37016
C          5.40031        0.58311       -0.40227
C          4.53307        1.49393        0.11837
N          3.87909        1.10422        1.19810
C          4.19115        2.79281       -0.40841
N          2.94457        2.72248       -1.17896
C          1.72164        1.89014       -1.21977
H          5.75263       -1.46746        0.21402
H          3.93224       -0.87615        2.09366
H          6.04109        0.70726       -1.26225
H          4.18631        3.56970        0.36883
H          4.97740        3.14862       -1.09387
C          0.88269        2.00517        0.06211
C          0.87372        2.45950       -2.37917
C          2.02679        0.42242       -1.55549
H          0.65510        3.07126        0.28075
H         -0.08091        1.46435       -0.06157
H          1.39311        1.54481        0.92522
H          1.43292        2.40185       -3.33874
H         -0.07779        1.90041       -2.50175
H          0.61916        3.52693       -2.20056
H          2.64494        0.35540       -2.47753
H          2.55406       -0.09392       -0.73658
H          1.08257       -0.13538       -1.73492
