68
speciation76.ct
Na         0.93664        1.89946       -0.12336
Mg         2.39695       -3.08735        1.46193
C          0.14808        1.79756       -3.75626
C          0.02844        3.86738       -2.77120
O          0.03450        2.47947       -2.45847
C         -1.06018        1.84873       -4.71836
C          0.12132        4.73412       -1.56123
H          0.94822        2.23772       -4.40864
H          0.41428        0.73765       -3.65284
H          0.87771        4.16436       -3.44724
H         -0.92990        4.15331       -3.25576
H          1.09651        4.55515       -1.12177
H          0.10403        5.79519       -1.86299
H         -0.69519        4.49126       -0.85462
H         -1.44345        2.87985       -4.89519
H         -0.72863        1.50898       -5.72565
H         -1.88369        1.18589       -4.39419
C          4.01922        1.40395        2.41779
C          5.14595        2.24091        2.49600
C          4.89412        3.31221        1.68264
C          3.67168        3.04282        1.17433
N          3.10975        1.89260        1.54387
C          2.96791        3.65986        0.15160
N          2.82331        2.50217       -0.73344
C          3.87022        2.27895       -1.75271
H          6.08040        2.07788        3.02819
H          3.95601        0.42231        2.88887
H          5.53314        4.15068        1.43486
H          3.40870        4.58198       -0.30003
H          1.98411        3.94187        0.64944
C          5.29288        2.89072       -1.58696
C          4.14509        0.82328       -1.76818
C          3.25945        2.72239       -3.02855
H          5.91298        2.35804       -0.82373
H          5.83128        2.68840       -2.54587
H          5.33710        3.96797       -1.38882
H          3.18767        0.39036       -1.71395
H          4.65034        0.45193       -2.67056
H          4.69980        0.55511       -0.84923
H          2.37724        2.10312       -3.04359
H          3.00882        3.80069       -2.95959
H          3.86524        2.48263       -3.91112
Na         2.11978        0.40213        0.21650
C         -1.87520        0.81308        0.34507
C         -2.88102       -0.12470        0.45182
C         -2.29923       -1.33921        0.46952
C         -0.93981       -1.11377        0.38198
N         -0.65922        0.21895        0.27521
C         -0.00258       -2.25619        0.33202
N          1.39263       -1.82276        0.35064
C          2.05989       -1.91423       -0.94786
H         -3.96057        0.07086        0.49087
H         -2.02883        1.87662        0.28842
H         -2.79373       -2.30849        0.51554
H         -0.16598       -2.90823        1.21919
H         -0.26661       -2.87776       -0.54315
C          1.30403       -0.91200       -1.89946
C          3.54254       -1.72197       -0.52426
C          2.07539       -3.24832       -1.70952
H          1.11151        0.09082       -1.50217
H          1.83010       -0.80332       -2.87091
H          0.27964       -1.27080       -2.13341
H          3.89087       -2.59362        0.06942
H          4.23472       -1.66459       -1.38825
H          3.69519       -0.91633        0.21469
H          2.66899       -4.02914       -1.19825
H          1.07980       -3.64007       -1.97134
H          2.58420       -3.04399       -2.68701
