110
speciation2483.ct
Na         4.54163        3.52278        3.27164
Mg         1.09279        3.71404       -1.36020
C          2.51078        2.82918        5.72293
C          4.42468        4.03623        6.30367
O          3.90691        3.01285        5.44408
C          1.61408        4.09829        5.77542
C          5.86683        4.43159        6.00241
H          2.10046        2.15780        4.94547
H          2.39514        2.29310        6.69299
H          3.87750        4.99433        6.18639
H          4.38614        3.69511        7.36185
H          5.95626        4.86624        4.98413
H          6.16273        5.22674        6.72753
H          6.56192        3.57894        6.12300
H          1.76584        4.74579        4.88875
H          0.54422        3.80459        5.82016
H          1.79438        4.69740        6.69793
H         -1.29875        3.52707        0.49958
C          0.57517        3.42670        1.68318
C         -0.27255        3.11815        0.44509
C          0.80051        4.90040        1.75612
H          0.11689        3.00747        2.61022
H          1.60025        3.02094        1.61855
H          1.56705        5.09610        2.53164
H          1.19338        5.24526        0.77268
C         -0.49506        5.59025        2.13347
H         -0.53341        2.03390        0.46649
H         -1.28484        5.43351        1.37351
H         -0.84550        5.17575        3.10461
H         -0.30847        6.67102        2.21204
C          6.08207        5.03343        0.81414
C          6.33058        5.16316       -0.54316
C          5.56091        4.22233       -1.16783
C          4.86798        3.58884       -0.17046
N          5.19003        4.04369        1.05237
C          3.96945        2.48305       -0.36327
N          2.82302        2.69118       -1.28033
C          2.23361        1.18175       -1.19349
H          7.00247        5.85352       -1.03357
H          6.54451        5.63277        1.58438
H          5.50918        4.00995       -2.22748
H          4.62848        1.68603       -0.78929
H          3.66008        2.18166        0.65307
C          1.87162        0.57878        0.20426
C          0.93449        1.13880       -1.84260
C          3.02833       -0.00451       -1.94390
H          1.33373        1.25668        0.79085
H          1.16669       -0.28693        0.13274
H          2.72439        0.24421        0.81752
H          1.36448        1.35171       -2.76464
H          0.36364        0.19410       -1.94029
H          0.26521        1.87388       -1.44813
H          3.69471        0.27004       -2.77679
H          3.31526       -0.85960       -1.29310
H          2.31791       -0.64688       -2.53143
Na         4.13301        2.29960       -3.21617
Mg        -1.52491        2.43260       -3.75202
C          6.48741        1.06355       -4.72164
C          5.85632        3.17259       -5.61790
O          5.41537        1.91627       -5.11117
C          7.49675        1.67754       -3.73583
C          6.59868        3.07576       -6.95697
H          6.03295        0.18395       -4.22109
H          7.01100        0.65923       -5.61360
H          4.96199        3.78872       -5.82276
H          6.44667        3.73952       -4.87039
H          5.93151        2.65474       -7.73839
H          6.90881        4.09546       -7.27267
H          7.51702        2.45953       -6.88297
H          6.97281        2.07204       -2.84138
H          8.21950        0.89951       -3.41347
H          8.09437        2.48553       -4.20815
H         -4.04007        2.66611       -4.44797
C         -4.01390        0.99406       -3.07191
C         -3.40486        1.78616       -4.20974
C         -4.17019        1.88211       -1.83838
H         -5.01309        0.62504       -3.39262
H         -3.36081        0.12431       -2.84437
H         -3.17786        2.26795       -1.51484
H         -4.82443        2.74651       -2.08885
C         -4.80687        1.10015       -0.69800
H         -3.34050        1.14608       -5.11483
H         -5.78945        0.69172       -1.01894
H         -4.14353        0.26265       -0.39497
H         -4.96544        1.77146        0.17096
C          2.87686        6.13644       -1.89645
C          3.65043        5.96225       -3.00235
C          2.91570        5.28617       -3.88511
C          1.63968        5.20501       -3.27551
N          1.71577        5.46826       -2.00498
C          0.31084        4.51248       -3.58838
N          0.30896        3.06320       -3.30551
C          0.64409        2.46254       -4.77007
H          4.68950        6.27018       -3.18615
H          3.15438        6.86264       -1.13831
H          3.32220        4.97551       -4.80212
H          0.01698        4.87596       -4.59456
H         -0.48077        4.98137       -2.94457
C          1.95397        2.96238       -5.46056
C          0.81085        0.88053       -4.94059
C         -0.44569        2.74058       -5.88673
H          2.84702        2.70853       -4.87186
H          2.14164        2.48558       -6.45558
H          1.84237        4.01210       -5.77246
H         -0.09822        0.32442       -4.64884
H          0.99987        0.61019       -6.01023
H          1.72609        0.44240       -4.49651
H         -1.37867        2.19190       -5.72164
H         -0.69163        3.79063       -6.12127
H         -0.09882        2.37830       -6.88832
