68
speciation60.ct
Na         1.04975       -0.08200        0.02830
Mg         4.03051       -1.93027       -0.52137
C         -1.76588        1.17444        0.45770
C         -1.90999       -1.16550        0.67487
O         -1.27025       -0.08200        0.02830
C         -1.50699        1.48585        1.93772
C         -1.30349       -2.47255        0.19477
H         -1.23867        1.94573       -0.14250
H         -2.84537        1.28003        0.21128
H         -1.77978       -1.13908        1.77632
H         -2.99031       -1.17719        0.40889
H         -0.24190       -2.51246        0.50117
H         -1.83991       -3.32840        0.65781
H         -1.37128       -2.55505       -0.90996
H         -0.43251        1.35710        2.17841
H         -1.80019        2.53557        2.14867
H         -2.11560        0.84123        2.60377
C          5.69946       -1.38529       -3.04591
C          5.96191       -0.22748       -3.76175
C          5.29527        0.79433       -3.12085
C          4.65869        0.21148       -2.04247
N          4.90015       -1.09786       -2.00112
C          3.81834        0.89193       -1.01688
N          3.41975       -0.08200        0.02830
C          3.72321        0.33947        1.41949
H          6.57531       -0.14958       -4.64883
H          6.07219       -2.37299       -3.28159
H          5.28436        1.83769       -3.39985
H          2.91412        1.31189       -1.50108
H          4.40718        1.74087       -0.61777
C          2.98770        1.65694        1.77712
C          3.20657       -0.76227        2.35458
C          5.24261        0.52101        1.65142
H          1.89400        1.55008        1.63164
H          3.17141        1.93244        2.83868
H          3.32752        2.51175        1.15852
H          3.69223       -1.73215        2.11709
H          3.41984       -0.50832        3.41633
H          2.10742       -0.88112        2.24164
H          5.80011       -0.38681        1.34128
H          5.65162        1.38986        1.09569
H          5.44635        0.72145        2.72458
Na         0.99712       -7.24146       -0.95567
C          0.94509       -5.03846       -3.18592
C          1.27821       -3.72456       -3.44992
C          1.80881       -3.20972       -2.28664
C          1.78883       -4.24055       -1.36906
N          1.24957       -5.34880       -1.91139
C          2.33992       -4.18539        0.01998
N          3.76360       -3.82176        0.03179
C          4.75324       -4.77480       -0.55042
H          1.16199       -3.20612       -4.39156
H          0.51840       -5.73834       -3.89171
H          2.19311       -2.20990       -2.13586
H          2.17082       -5.14775        0.54707
H          1.79180       -3.41285        0.59215
C          4.60377       -4.94471       -2.07991
C          6.14019       -4.18166       -0.27321
C          4.66846       -6.16370        0.11517
H          4.55429       -3.96427       -2.59007
H          5.46000       -5.51845       -2.49681
H          3.71286       -5.53694       -2.35006
H          6.30755       -4.08668        0.82060
H          6.94030       -4.82540       -0.69854
H          6.22581       -3.17142       -0.72520
H          4.79420       -6.08276        1.21246
H          3.68992       -6.65284       -0.09585
H          5.45527       -6.83750       -0.28921
