96
speciation1303.ct
Na         4.47141       -0.77904        1.83559
Mg         5.66121       -2.62011       -3.35328
C          6.35753       -1.14784        4.19887
C          5.69334       -3.17954        3.37281
O          5.29347       -1.82923        3.55098
C          5.95994        0.27663        4.53353
C          4.56407       -4.04753        2.84118
H          6.58621       -1.63274        5.17855
H          7.27539       -1.13590        3.56733
H          6.57524       -3.26861        2.70075
H          5.95039       -3.63376        4.36881
H          4.28782       -3.72638        1.81958
H          4.90648       -5.10593        2.80522
H          3.68059       -3.99111        3.51372
H          5.05035        0.27640        5.16997
H          6.78802        0.76163        5.09574
H          5.77013        0.84603        3.60237
H          6.64566       -3.53608       -0.81374
C          8.25435       -4.64197       -1.72799
C          6.80635       -4.04669       -1.78561
C          9.34717       -3.56416       -1.73674
H          8.39231       -5.28816       -0.82820
H          8.39597       -5.30571       -2.60493
H          9.12103       -2.92820       -2.59292
H          9.31015       -2.90992       -0.84067
C         10.77309       -4.13128       -1.90538
H          6.14235       -4.94012       -1.77795
H         11.23975       -4.36140       -0.92326
H         10.79328       -5.04821       -2.53486
H         11.41249       -3.37469       -2.41294
C          2.57464       -2.33193       -3.85832
C          1.30985       -2.14255       -3.32627
C          1.49422       -1.82366       -2.01940
C          2.86497       -1.72054       -1.80300
N          3.54451       -2.13783       -2.91285
C          3.44677       -1.33463       -0.46148
N          3.33167        0.07813        0.04925
C          2.06703        0.73244        0.43932
H          0.35335       -2.25812       -3.82742
H          2.75412       -2.64085       -4.87749
H          0.70153       -1.70072       -1.31000
H          4.53735       -1.53117       -0.56516
H          3.07148       -2.05268        0.29668
C          1.41588       -0.11334        1.54514
C          2.49582        2.13173        0.90807
C          1.04291        1.03539       -0.69719
H          2.15106       -0.31828        2.35269
H          0.51834        0.36856        1.97741
H          1.10776       -1.09695        1.12427
H          2.93761        2.66783        0.03175
H          1.63191        2.73587        1.25715
H          3.27239        2.08952        1.69421
H          1.51735        1.52308       -1.57391
H          0.42058        0.22263       -1.04466
H          0.25181        1.71367       -0.30807
Mg         4.65864        1.24699       -0.86344
C          6.58596        3.38018       -0.96515
C          5.62992        2.83301       -3.05685
O          5.95227        2.38649       -1.75321
C          5.71511        4.60890       -0.66720
C          4.94867        1.71486       -3.83454
H          6.85486        2.91033        0.00389
H          7.54738        3.68795       -1.43268
H          4.92842        3.69188       -3.04997
H          6.56517        3.09178       -3.60190
H          3.96897        1.46758       -3.37268
H          4.77313        2.04734       -4.88095
H          5.58704        0.80727       -3.85052
H          4.76631        4.30605       -0.18017
H          6.26659        5.28997        0.01461
H          5.49299        5.19035       -1.58511
C          5.98816       -1.36723       -6.02695
C          6.68984       -1.15039       -7.19856
C          7.84098       -1.87239       -7.10100
C          7.80441       -2.50743       -5.87546
N          6.65617       -2.20139       -5.18978
C          8.92548       -3.39249       -5.43893
N          8.47105       -4.71866       -5.01170
C          8.08744       -5.71393       -6.03494
H          6.39772       -0.53119       -8.04213
H          5.02794       -0.92991       -5.80278
H          8.63102       -1.93463       -7.84605
H          9.72372       -3.46431       -6.20607
H          9.42383       -2.89151       -4.60320
C          9.17117       -5.90024       -7.11736
C          7.90837       -7.04649       -5.28803
C          6.74729       -5.34994       -6.69817
H         10.14865       -6.17171       -6.66116
H          8.88117       -6.71741       -7.81726
H          9.30209       -4.98783       -7.73488
H          7.15266       -6.93364       -4.47968
H          7.57065       -7.85197       -5.97454
H          8.86602       -7.36193       -4.81853
H          5.95952       -5.20974       -5.92749
H          6.82866       -4.42827       -7.30385
H          6.42720       -6.15873       -7.38980
