81
speciation817.ct
Na         1.37962        0.34561       -0.14497
Mg         4.17945       -1.35285       -0.74286
C          6.81282       -2.84646       -0.36107
C          5.44676       -3.26162        1.54139
O          5.66192       -2.42036        0.38724
C          6.84229       -4.32208       -0.84191
C          6.57761       -3.23870        2.58429
H          6.90559       -2.21153       -1.25470
H          7.74021       -2.63859        0.21548
H          4.55588       -2.95451        2.09289
H          5.23683       -4.30890        1.26193
H          6.73071       -2.21513        2.98243
H          6.29747       -3.90832        3.42783
H          7.53114       -3.63217        2.17779
H          6.02627       -4.55057       -1.55020
H          7.78397       -4.51469       -1.39427
H          6.82224       -5.04961       -0.00355
H          2.19562       -3.61879        2.20795
C          0.10349       -3.66633        2.72094
C          1.28234       -3.01161        2.05018
C         -0.18812       -5.02596        2.11813
H          0.35420       -3.77694        3.80113
H         -0.78325       -3.00198        2.62554
H         -0.48195       -4.90085        1.05365
H          0.71927       -5.66736        2.17284
C         -1.31231       -5.68536        2.90342
H          1.39060       -2.09599        2.63339
H         -0.99479       -5.83267        3.95938
H         -2.21798       -5.04210        2.88664
H         -1.55145       -6.67056        2.45797
C          5.90715       -0.57363       -3.19841
C          6.13873        0.66280       -3.77988
C          5.42274        1.58493       -3.02902
C          4.81147        0.87112       -2.03536
N          5.09745       -0.43861       -2.13528
C          3.93944        1.46500       -0.96204
N          3.52053        0.42709       -0.00137
C          3.85231        0.68431        1.41304
H          6.75497        0.87545       -4.64083
H          6.31514       -1.51448       -3.54029
H          5.37982        2.65687       -3.20216
H          3.03650        1.90798       -1.43264
H          4.49436        2.28766       -0.47324
C          3.24419        1.99608        1.96714
C          3.18790       -0.43474        2.16563
C          5.37543        0.66892        1.63045
H          2.14031        2.01114        1.82537
H          3.44349        2.06906        3.06085
H          3.66527        2.89914        1.48932
H          3.41387       -1.37322        1.65324
H          3.46249       -0.47405        3.24049
H          2.09684       -0.27356        2.06660
H          5.83579       -0.22097        1.17572
H          5.84998        1.55771        1.16860
H          5.61818        0.67631        2.71350
Mg         1.15784       -2.60055       -0.01847
C         -1.63748       -2.00332       -1.17714
C         -2.01284       -1.47054       -2.39852
C         -0.84948       -1.21345       -3.09938
C          0.17965       -1.60496       -2.26538
N         -0.30212       -2.08086       -1.11173
C          1.66435       -1.57081       -2.55440
N          2.44038       -2.35186       -1.52895
C          2.69655       -3.75737       -1.94143
H         -3.02156       -1.29026       -2.74383
H         -2.30204       -2.31101       -0.38609
H         -0.76948       -0.80708       -4.09757
H          1.98845       -0.51621       -2.56625
H          1.82610       -1.94879       -3.57693
C          3.60378       -3.85668       -3.20019
C          3.41256       -4.39078       -0.78187
C          1.40529       -4.57617       -2.15241
H          4.51306       -3.23234       -3.08226
H          3.91905       -4.90966       -3.36596
H          3.08634       -3.55168       -4.13269
H          2.80446       -4.34659        0.14099
H          3.72949       -5.43181       -0.97541
H          4.27505       -3.77221       -0.64945
H          0.77489       -4.54123       -1.23796
H          0.81549       -4.20642       -3.01221
H          1.65694       -5.64163       -2.34448
