110
speciation2576.ct
Na         0.93126       -0.04907       -0.05354
Mg        -2.89381        0.75414       -1.68509
C         -5.79753        0.25478       -1.22194
C         -4.69244       -1.60937       -2.12197
O         -4.58532       -0.24441       -1.76491
C         -6.23890       -0.46966        0.05218
C         -3.47338       -2.01196       -2.88186
H         -5.65128        1.31907       -0.97243
H         -6.60774        0.23737       -1.98667
H         -4.74701       -2.26359       -1.23237
H         -5.56034       -1.76942       -2.80934
H         -2.55341       -1.81422       -2.29016
H         -3.51634       -3.07430       -3.19577
H         -3.52994       -1.39125       -3.76177
H         -5.42063       -0.45383        0.79112
H         -7.12386        0.03291        0.48845
H         -6.52675       -1.52024       -0.16300
H         -4.24414        3.26651       -2.23525
C         -2.69714        4.28752       -1.12501
C         -3.59385        3.04414       -1.36829
C         -1.70201        4.59470       -2.24989
H         -3.33424        5.18279       -0.95202
H         -2.15737        4.13810       -0.19228
H         -1.05595        3.71205       -2.44021
H         -2.26800        4.83771       -3.17178
C         -0.79147        5.78153       -1.89865
H         -4.23818        2.99938       -0.46675
H         -1.38554        6.69745       -1.69346
H         -0.16913        5.56030       -1.00567
H         -0.10416        5.99233       -2.74578
C          2.32471        2.76428       -0.04942
C          1.57156        3.66297        0.63277
C          0.27563        3.25550        0.49440
C          0.28262        2.09680       -0.28630
N          1.54747        1.81915       -0.65028
C         -0.87982        1.18644       -0.74609
N         -1.43874       -0.04907       -0.05354
C         -1.84059        0.23427        1.37447
H          1.96277        4.49436        1.21201
H          3.38811        2.79796       -0.00267
H         -0.52442        3.76667        0.98172
H         -0.57192        0.84221       -1.74934
H         -1.64649        1.88929       -0.92960
C         -2.77983        1.45383        1.49670
C         -2.58132       -0.97700        1.95697
C         -0.61222        0.45811        2.30044
H         -3.69748        1.29770        0.89897
H         -3.07997        1.62837        2.55286
H         -2.28729        2.38540        1.18212
H         -1.91121       -1.85766        2.02458
H         -2.93423       -0.74294        2.99080
H         -3.45702       -1.24439        1.34442
H          0.07130       -0.41478        2.28140
H         -0.02070        1.34816        2.06281
H         -0.94080        0.62154        3.35123
Na         4.02345        1.26927        1.47678
Mg         1.75387       -0.19875       -1.72865
C          1.67979       -1.22487       -4.58051
C          1.73822        1.14725       -4.28541
O          1.41666       -0.12392       -3.69043
C          1.16832       -2.55336       -4.08332
C          2.96707        1.15281       -5.21879
H          1.17691       -1.08220       -5.52947
H          2.75109       -1.35665       -4.83516
H          0.88540        1.63026       -4.75682
H          1.81622        1.91177       -3.51104
H          2.75915        0.57518       -6.14470
H          3.22875        2.18409       -5.52465
H          3.84369        0.68663       -4.72950
H          0.25711       -2.46534       -3.45297
H          0.94923       -3.24074       -4.92824
H          2.02070       -3.01493       -3.57108
H         -2.71912        1.57099       -4.48634
C         -1.56669       -0.20475       -4.91684
C         -1.98042        0.95000       -3.94366
C         -0.85557        0.07857       -6.27664
H         -0.93046       -0.86658       -4.31720
H         -2.43635       -0.76949       -5.25762
H          0.09605        0.58462       -6.19813
H         -0.62556       -0.90735       -6.74440
C         -1.61594        0.87974       -7.29746
H         -1.09841        1.59187       -3.75631
H         -2.50726        0.31340       -7.62710
H         -1.87814        1.87170       -6.88206
H         -0.93891        1.02611       -8.17402
C          1.84476       -3.61074       -1.22256
C          2.62055       -4.48443       -0.47783
C          3.37064       -3.71514        0.35941
C          3.03701       -2.41481        0.06939
N          2.14544       -2.30447       -0.94029
C          3.63791       -1.26941        0.73650
N          3.30126       -0.04907       -0.05354
C          4.36231        0.09468       -1.20412
H          2.65119       -5.56564       -0.54998
H          1.15925       -3.97705       -1.96122
H          4.10832       -4.05632        1.07717
H          4.69124       -1.38585        0.91988
H          3.14889       -1.16791        1.73302
C          4.29541       -1.04304       -2.25991
C          4.24075        1.40871       -1.98737
C          5.85175        0.12916       -0.75341
H          3.29023       -1.11479       -2.66862
H          4.96742       -0.84790       -3.12758
H          4.60317       -2.02688       -1.86990
H          4.62949        2.29714       -1.47716
H          4.83807        1.41005       -2.92025
H          3.22547        1.53653       -2.24528
H          6.03637        0.96212       -0.05011
H          6.22671       -0.82498       -0.34555
H          6.50311        0.30712       -1.64536
