81
speciation379.ct
Na         1.43522        1.77560        0.26407
Mg         3.50714       -0.34981       -1.65816
C         -0.18906        2.99574        2.77032
C          2.14136        3.40238        3.00585
O          1.13059        2.64361        2.34076
C         -0.53712        4.48225        2.61278
C          2.22736        3.17508        4.53365
H         -0.91289        2.40724        2.17472
H         -0.38028        2.66374        3.81691
H          3.12433        3.12601        2.59946
H          2.03835        4.47780        2.77429
H          2.57590        2.14791        4.77210
H          2.95590        3.89666        4.96305
H          1.27052        3.35974        5.06341
H         -0.34333        4.79607        1.56793
H         -1.60443        4.65505        2.86345
H          0.04996        5.11427        3.31310
H          5.01715        0.59145       -3.77730
C          3.84125       -1.01134       -4.59695
C          4.69569       -0.43140       -3.47536
C          4.60653       -1.09009       -5.92771
H          3.51224       -2.02604       -4.29298
H          2.94776       -0.36193       -4.72239
H          4.94613       -0.07703       -6.23882
H          5.49871       -1.74116       -5.80483
C          3.72337       -1.66849       -7.03292
H          5.61015       -1.03773       -3.31008
H          3.36157       -2.67952       -6.74883
H          2.84909       -1.00771       -7.21660
H          4.30591       -1.75327       -7.97486
C         -1.58068        0.88738       -0.18654
C         -2.18981       -0.34241       -0.33834
C         -1.18520       -1.29188       -0.30083
C          0.00226       -0.59589       -0.13409
N         -0.25432        0.72118       -0.05001
C          1.39380       -1.20952       -0.04804
N          2.49124       -0.19629        0.08914
C          3.41467       -0.43207        1.23441
H         -3.25107       -0.52434       -0.45653
H         -2.07789        1.84690       -0.16383
H         -1.31364       -2.36370       -0.38507
H          1.57266       -1.79239       -0.97680
H          1.37576       -1.94518        0.77789
C          4.14033       -1.78936        1.13891
C          4.51029        0.64512        1.24831
C          2.63721       -0.33022        2.55669
H          4.70899       -1.86293        0.18681
H          4.86064       -1.88667        1.98192
H          3.44374       -2.64658        1.20443
H          4.07057        1.64091        1.40354
H          5.21762        0.50320        2.08897
H          5.10267        0.61453        0.30647
H          2.03024        0.57740        2.53417
H          1.93967       -1.17343        2.71223
H          3.32043       -0.27272        3.42736
Mg         0.01399        1.42633       -3.92752
C          0.26138        3.94978       -5.46113
C          0.48480        5.30282       -5.29817
C          0.61723        5.52146       -3.94292
C          0.48725        4.28491       -3.34146
N          0.25898        3.33217       -4.26534
C          0.63073        3.99711       -1.88006
N          1.71871        3.03785       -1.64454
C          3.11427        3.48923       -1.93457
H          0.55815        6.04395       -6.08230
H          0.12163        3.44011       -6.40503
H          0.82492        6.46467       -3.45497
H         -0.31805        3.53590       -1.53666
H          0.78526        4.91958       -1.28510
C          3.50724        4.71345       -1.09023
C          3.98599        2.33431       -1.54851
C          3.42699        3.73613       -3.43414
H          3.31468        4.51926       -0.01345
H          4.58881        4.93921       -1.22018
H          2.94030        5.61101       -1.40864
H          3.71917        1.48288       -2.18122
H          5.07493        2.54699       -1.62509
H          3.70316        2.09998       -0.53987
H          3.14540        2.85168       -4.04970
H          2.95183        4.63574       -3.84225
H          4.51767        3.90719       -3.57578
