95
speciation1411.ct
Na         1.07623        0.05045        0.04054
Mg         5.31746        3.39166       -3.02115
C         -1.71757       -1.24866        0.35600
C         -1.92172        0.59631       -1.08370
O         -1.24377        0.05045        0.04054
C         -1.44863       -2.30165       -0.72956
C         -1.36401        1.96160       -1.44834
H         -1.18257       -1.57095        1.27342
H         -2.79743       -1.22238        0.62365
H         -1.81623       -0.02593       -1.99587
H         -2.99458        0.73931       -0.83096
H         -0.35146        1.83688       -1.87035
H         -1.98178        2.42534       -2.24530
H         -1.34992        2.63327       -0.56342
H         -0.37458       -2.30375       -1.00860
H         -1.72500       -3.30562       -0.34578
H         -2.06774       -2.12787       -1.63361
H          7.60652        2.55772       -4.00579
C          7.81029        4.70933       -3.74111
C          7.00182        3.48393       -4.13894
C          6.96737        5.97984       -3.88279
H          8.13142        4.59240       -2.68480
H          8.70922        4.77275       -4.39174
H          6.63483        6.09953       -4.93752
H          6.06756        5.90692       -3.23230
C          7.76952        7.21268       -3.47721
H          6.67689        3.55639       -5.19684
H          8.09752        7.12658       -2.41925
H          8.66239        7.32148       -4.12899
H          7.13911        8.12088       -3.58144
C          2.85348        4.26023       -1.90103
C          1.73008        3.90425       -1.19986
C          1.88821        2.58630       -0.86914
C          3.12616        2.17635       -1.34754
N          3.68572        3.21243       -2.01201
C          3.78906        0.80831       -1.19013
N          3.44623        0.05045        0.04054
C          3.79895        0.65779        1.37027
H          0.88549        4.53265       -0.94805
H          3.04681        5.23790       -2.31650
H          1.16821        2.04185       -0.30554
H          4.88883        0.90514       -1.29874
H          3.45555        0.19570       -2.05061
C          3.10157        2.00012        1.71349
C          3.31994       -0.33685        2.43880
C          5.31202        0.89959        1.49487
H          1.99692        1.90744        1.69156
H          3.35135        2.31996        2.74803
H          3.45752        2.83725        1.08204
H          3.77868       -1.32800        2.28561
H          3.55751        0.02257        3.46456
H          2.21568       -0.46344        2.36934
H          5.87912       -0.02209        1.29696
H          5.64714        1.67310        0.77213
H          5.55686        1.27771        2.51439
Na         4.96193       -6.68957        2.34120
Mg         4.40008       -1.81040        0.02657
H          1.89359       -2.39907        0.59053
C          2.69154       -4.40017        0.77919
C          2.64570       -3.03499        0.07725
C          1.31404       -5.08992        0.75379
H          3.44349       -5.04502        0.27589
H          2.98984       -4.25074        1.83665
H          0.57022       -4.44979        1.27722
H          0.98097       -5.23237       -0.29706
C          1.34409       -6.45663        1.44137
H          2.33551       -3.17089       -0.97885
H          2.03985       -7.14321        0.91391
H          1.66266       -6.35673        2.50078
H          0.32748       -6.90705        1.42288
C          5.02889       -4.12940        4.01541
C          5.43513       -2.81670        4.09864
C          6.05274       -2.52086        2.90425
C          5.96283       -3.65213        2.12451
N          5.35548       -4.64257        2.81628
C          6.53503       -3.82473        0.75047
N          6.29122       -2.66917       -0.15314
C          7.03573       -2.77882       -1.46199
H          5.31026       -2.15540        4.94420
H          4.53390       -4.69069        4.79640
H          6.51239       -1.58575        2.64016
H          6.13475       -4.76794        0.32806
H          7.61660       -3.94438        0.93102
C          6.51918       -3.96956       -2.29966
C          6.83730       -1.49946       -2.29896
C          8.57480       -2.91775       -1.25340
H          5.44351       -3.83270       -2.53954
H          7.08291       -4.05101       -3.25599
H          6.64807       -4.93916       -1.77946
H          7.22835       -0.60647       -1.76867
H          7.39755       -1.58565       -3.26181
H          5.76920       -1.34080       -2.54852
H          8.96979       -2.05002       -0.68115
H          8.87648       -3.85154       -0.74114
H          9.10539       -2.94358       -2.23151
