68
speciation74.ct
Na         4.72042       -1.38059        1.34724
Mg         5.73091        6.25195       -1.50828
C          5.60975       -4.15045        2.51933
C          6.00456       -2.42812        4.08368
O          5.95173       -2.79020        2.71811
C          4.21383       -4.53640        3.02183
C          6.32213       -0.94422        4.20033
H          5.62730       -4.32323        1.42229
H          6.38918       -4.81947        2.94574
H          5.03804       -2.58986        4.60283
H          6.82063       -2.99077        4.58994
H          5.50705       -0.34434        3.74162
H          6.40892       -0.66529        5.27241
H          7.27944       -0.71129        3.68892
H          3.44969       -3.84882        2.60310
H          3.98313       -5.57338        2.69914
H          4.16373       -4.52475        4.12961
C          3.28687        2.51625       -3.74790
C          2.78210        1.48151       -4.49622
C          2.91258        0.34264       -3.73003
C          3.51331        0.72961       -2.54279
N          3.70429        2.06990       -2.55180
C          3.91980       -0.22942       -1.43679
N          3.46257        0.05939       -0.05317
C          2.04575        0.25014        0.25501
H          2.36268        1.55971       -5.48969
H          3.33324        3.55031       -4.05387
H          2.61109       -0.65512       -4.01808
H          5.02571       -0.22120       -1.41128
H          3.66815       -1.27021       -1.72672
C          1.23056       -0.95851       -0.26891
C          1.95387        0.36705        1.79494
C          1.53222        1.59368       -0.31011
H          1.21068       -1.78929        0.46987
H          1.68217       -1.42428       -1.15387
H          0.24925       -0.64965       -0.68197
H          2.56904        1.22567        2.15681
H          0.91005        0.52423        2.14171
H          2.36146       -0.54394        2.28410
H          2.19476        2.43007        0.01453
H          1.44823        1.59998       -1.40937
H          0.51411        1.81628        0.07793
Na         4.34752        3.46062       -1.12579
C          6.04652        2.42608        1.32961
C          6.34607        2.96226        2.56300
C          5.80449        4.24578        2.57721
C          5.20130        4.43739        1.36497
N          5.32783        3.32723        0.60694
C          4.51316        5.67497        0.88178
N          4.17629        5.56711       -0.55188
C          3.05352        6.44486       -0.98665
H          6.88632        2.47183        3.37562
H          6.30214        1.42645        0.99501
H          5.85337        4.94000        3.40285
H          5.19589        6.53610        1.02541
H          3.64561        5.77854        1.54451
C          3.36256        7.92547       -0.67314
C          2.89341        6.30075       -2.50456
C          1.70903        6.04682       -0.32906
H          4.30974        8.23762       -1.16783
H          2.54729        8.58246       -1.04791
H          3.45862        8.10267        0.41662
H          2.64712        5.25320       -2.76299
H          2.06783        6.94683       -2.87932
H          3.82496        6.59213       -3.03390
H          1.44717        4.99586       -0.57095
H          1.71212        6.17085        0.77006
H          0.89440        6.70513       -0.70711
