68
speciation98.ct
Na         0.99744       -0.03760       -0.09263
Mg         3.37611        2.83311       -1.02610
C         -1.75969       -1.38470       -0.21923
C         -1.78141        0.82203       -1.12584
O         -1.32256       -0.03760       -0.09263
C         -1.47391       -2.04842       -1.57381
C         -3.28580        1.09213       -1.04775
H         -1.21207       -1.96740        0.55091
H         -2.83391       -1.47522        0.04743
H         -1.27950        1.80185       -0.99525
H         -1.48432        0.46928       -2.13348
H         -3.54156        1.55450       -0.07108
H         -3.57546        1.79179       -1.86048
H         -3.87188        0.16014       -1.17907
H         -0.39756       -1.95529       -1.82893
H         -1.74002       -3.12471       -1.51815
H         -2.09440       -1.60750       -2.38145
C          5.65463        2.54843       -2.93346
C          6.25322        1.46231       -3.53300
C          5.56270        0.34685       -3.10433
C          4.56686        0.79536       -2.24880
N          4.63694        2.12834       -2.16027
C          3.46872       -0.03697       -1.59113
N          3.36744       -0.03760       -0.09263
C          4.05489       -1.16876        0.59367
H          7.09143        1.48787       -4.21728
H          5.93872        3.58694       -3.05660
H          5.75858       -0.68067       -3.39322
H          3.55300       -1.05666       -1.99624
H          2.50962        0.35132       -1.98911
C          5.57349       -1.11547        0.31868
C          3.84400       -1.03182        2.11172
C          3.49198       -2.55100        0.17103
H          5.99368       -0.14092        0.64937
H          6.10240       -1.92853        0.86175
H          5.79388       -1.24517       -0.75989
H          2.76519       -1.09554        2.36585
H          4.37388       -1.84888        2.65207
H          4.24421       -0.06408        2.48131
H          2.39821       -2.59783        0.35668
H          3.68175       -2.80668       -0.88843
H          3.98181       -3.35965        0.75605
Na         2.66929        1.21075        1.07816
C          0.57021        1.01905        3.45759
C         -0.48174        1.88342        3.68304
C         -0.45811        2.82152        2.66697
C          0.59483        2.48548        1.86961
N          1.22825        1.41537        2.35933
C          1.11950        3.15564        0.61998
N          2.57939        3.11800        0.61513
C          3.42343        3.96473        1.45573
H         -1.18250        1.83307        4.50010
H          0.85779        0.16307        4.05393
H         -1.12812        3.65721        2.51594
H          0.68375        4.13781        0.37269
H          0.83291        2.46486       -0.20888
C          3.12679        3.77801        2.95334
C          4.89496        3.54400        1.21934
C          3.23336        5.41393        1.01834
H          3.28530        2.71482        3.24424
H          3.81081        4.39961        3.56319
H          2.09195        4.07847        3.19859
H          5.18551        3.65241        0.15309
H          5.58737        4.16523        1.82726
H          5.05616        2.47756        1.50328
H          3.47609        5.50743       -0.06486
H          2.17519        5.71460        1.16371
H          3.88630        6.09275        1.59975
