53
speciation852.ct
Na         2.50273        1.38381       -3.08031
C          2.00154        4.58067       -4.62347
C          2.39622        5.10595       -5.83036
C          3.16389        4.13593       -6.42918
C          3.23423        3.10448       -5.53036
N          2.45377        3.29873       -4.46092
C          4.11214        1.92334       -5.59093
N          5.01552        1.99164       -4.41757
C          6.24485        2.82192       -4.48825
H          2.17392        6.09735       -6.20022
H          1.42028        5.15356       -3.91849
H          3.66880        4.22751       -7.38137
H          4.65525        1.84910       -6.55238
H          3.46506        1.02144       -5.49807
C          5.94068        4.32455       -4.61838
C          7.00438        2.60291       -3.16856
C          7.15721        2.38021       -5.65309
H          5.28295        4.66437       -3.79582
H          6.87929        4.91712       -4.58046
H          5.47651        4.55960       -5.58926
H          7.26913        1.53128       -3.04225
H          7.94392        3.19725       -3.14666
H          6.37616        2.90773       -2.30400
H          7.40770        1.30169       -5.56727
H          6.68578        2.55933       -6.63956
H          8.10500        2.96060       -5.64393
Na         5.73082       -0.01773       -4.25915
Mg         3.91556        2.32044       -2.79212
C          4.33253       -1.00732       -1.36181
C          5.11150       -1.06189       -0.21155
C          5.04368        0.17936        0.37660
C          4.22041        0.91912       -0.43006
N          3.79040        0.22930       -1.51204
C          3.82568        2.31981       -0.17127
N          2.81561        2.64924       -1.16667
C          2.15862        3.97060       -0.94830
H          5.66824       -1.90514        0.17912
H          4.19629       -1.82208       -2.05130
H          5.52252        0.50696        1.29138
H          3.40557        2.33918        0.84964
H          4.71416        2.97731       -0.24924
C          3.13410        5.08770       -1.37043
C          0.82782        3.97054       -1.73104
C          1.71628        4.24721        0.51489
H          3.53689        4.91245       -2.38204
H          2.65098        6.08688       -1.33525
H          3.99858        5.12277       -0.66919
H          0.07274        3.32255       -1.24133
H          0.40348        4.99784       -1.80015
H          0.89667        3.50151       -2.71001
H          1.01099        3.46214        0.86660
H          2.56354        4.31537        1.22288
H          1.18435        5.22539        0.56541
