96
speciation1155.ct
Na         1.03219        0.07684       -0.05531
Mg         3.50073        3.60849       -1.18136
C         -2.00890        1.23270        0.32647
C         -1.87515       -1.13176        0.39464
O         -1.28781        0.07684       -0.05531
C         -2.25235        1.32747        1.82614
C         -1.03001       -2.31369       -0.05535
H         -1.38937        2.10100        0.02408
H         -2.96482        1.31788       -0.23432
H         -1.91294       -1.19063        1.50299
H         -2.89016       -1.24996       -0.04487
H         -0.01863       -2.24931        0.39777
H         -1.50614       -3.25932        0.28320
H         -0.93910       -2.32958       -1.16082
H         -1.31924        1.03627        2.31346
H         -2.55382        2.35698        2.11024
H         -3.03123        0.62011        2.17079
H          4.60582        6.30788       -0.53792
C          5.80848        6.03207       -2.17769
C          5.07227        5.42450       -1.00484
C          4.77257        6.55595       -3.14644
H          6.46510        6.86123       -1.82325
H          6.49544        5.31421       -2.64700
H          4.09573        5.72966       -3.43245
H          4.19593        7.36204       -2.63589
C          5.42651        7.10110       -4.39370
H          5.90878        5.15880       -0.32997
H          6.16313        7.88970       -4.13260
H          5.93668        6.27171       -4.92842
H          4.63610        7.52742       -5.04286
C          5.63290        2.46401       -2.94773
C          6.19403        1.33866       -3.48582
C          5.48249        0.27985       -2.98356
C          4.50513        0.81369       -2.16550
N          4.62394        2.16226       -2.09812
C          3.45337        0.00097       -1.52740
N          3.40219        0.07684       -0.05531
C          4.10363       -1.05434        0.62917
H          7.01679        1.30136       -4.18265
H          5.94989        3.45613       -3.17790
H          5.61931       -0.74746       -3.23750
H          3.54406       -1.01291       -1.90037
H          2.48479        0.29868       -1.93454
C          5.60905       -1.05247        0.27676
C          3.98018       -0.87462        2.14788
C          3.49211       -2.44034        0.28040
H          6.07146       -0.07707        0.54309
H          6.14581       -1.85753        0.82325
H          5.77502       -1.23959       -0.80086
H          2.91735       -0.91040        2.46177
H          4.52376       -1.68942        2.67898
H          4.42448        0.08800        2.46366
H          2.41143       -2.46001        0.52722
H          3.61513       -2.73970       -0.77741
H          3.99946       -3.24030        0.86037
Mg         2.69480        1.23718        1.04887
C          1.27664        4.90915       -2.86613
C          0.83856        2.62631       -2.48517
O          1.77776        3.70462       -2.31290
C         -0.10777        5.35043       -2.32296
C          0.54473        2.21506       -3.93702
H          1.99404        5.73103       -2.67362
H          1.26942        4.82865       -3.97711
H          1.18205        1.77123       -1.93595
H         -0.11629        2.77522       -1.96514
H          1.46734        1.87477       -4.44230
H         -0.18866        1.37908       -3.93293
H          0.07398        3.03560       -4.52057
H          0.01330        6.02227       -1.44441
H         -0.77142        4.60918       -1.88146
H         -0.76763        5.58706       -3.18955
C          0.94900        1.06755        3.62640
C          0.07383        2.07797        4.05633
C          0.10793        3.07321        3.10690
C          0.98373        2.61875        2.14197
N          1.50317        1.44244        2.46089
C          1.47565        3.28667        0.91198
N          2.93854        3.08480        0.80075
C          3.79091        3.67379        1.89014
H         -0.50091        2.06806        4.95624
H          1.16155        0.16484        4.14958
H         -0.44587        4.01617        3.11575
H          1.15733        4.33497        0.73647
H          1.04454        2.67625        0.10137
C          3.56581        3.16619        3.34263
C          5.25424        3.28033        1.60388
C          3.50855        5.18231        1.93534
H          3.69563        2.06614        3.42530
H          4.30902        3.62234        4.02894
H          2.59893        3.46861        3.77719
H          5.54831        3.39266        0.56035
H          5.95081        3.82712        2.27760
H          5.40409        2.19191        1.78284
H          3.47996        5.60423        0.94265
H          2.47750        5.35563        2.30993
H          4.20952        5.71837        2.60023
