81
speciation614.ct
Na         7.59976        2.69379        4.83013
Mg         3.07432        4.05126        2.68054
C          4.88898        5.70074        1.27219
C          5.25616        3.49268        0.75633
O          4.91020        4.39600        1.81550
C          4.66268        6.66694        2.37803
C          6.75067        3.53625        0.37033
H          5.85786        6.00222        0.82585
H          4.07320        5.79864        0.52037
H          5.01901        2.45688        1.06097
H          4.68287        3.68360       -0.16790
H          7.40267        3.36510        1.25006
H          6.96194        2.75764       -0.39393
H          7.03179        4.49954       -0.10435
H          5.48226        6.62701        3.12424
H          4.55491        7.69386        1.96973
H          3.74149        6.32750        2.84022
H          0.62688        3.95803        1.45696
C          1.76773        3.00680       -0.07847
C          1.62347        4.10034        0.99554
C          0.66394        3.07495       -1.14626
H          2.73332        3.09605       -0.59376
H          1.72229        2.01458        0.41577
H         -0.33096        2.95997       -0.66493
H          0.69684        4.05639       -1.66865
C          0.84038        1.96239       -2.18327
H          1.65477        5.09225        0.49908
H          1.80652        2.08111       -2.71964
H          0.82206        0.96655       -1.69066
H          0.01754        2.00147       -2.92839
C          1.73534        1.54269        3.13255
C          1.83542        0.21034        3.44024
C          3.16317       -0.02536        3.70445
C          3.81951        1.18344        3.58436
N          2.95594        2.13053        3.18357
C          5.28918        1.39660        3.80811
N          5.60665        1.97124        5.12412
C          5.64308        1.06555        6.30174
H          1.03112       -0.51565        3.46251
H          0.82014        2.04931        2.85581
H          3.60048       -0.97841        3.98681
H          5.63908        2.11907        3.06366
H          5.86604        0.48355        3.57792
C          6.40944       -0.24700        6.01489
C          6.38041        1.80847        7.42980
C          4.22313        0.75846        6.81396
H          7.43420       -0.02317        5.64586
H          6.49512       -0.86027        6.93698
H          5.88565       -0.87696        5.26711
H          5.85587        2.75500        7.68330
H          6.42765        1.17998        8.34677
H          7.42080        2.05305        7.12980
H          3.67725        1.70079        7.03034
H          3.63380        0.17408        6.09977
H          4.26541        0.14879        7.74128
Mg         0.88850        2.59219        6.43255
C          1.82149        3.92327        8.81889
C          2.65555        4.89231        9.32163
C          3.27533        5.47441        8.23098
C          2.80334        4.82396        7.08838
N          1.90905        3.87841        7.46726
C          3.34896        5.07340        5.66183
N          2.41990        5.20068        4.48874
C          1.56544        6.44417        4.41687
H          2.80771        5.13000       10.37310
H          1.19752        3.26788        9.42023
H          4.02031        6.25418        8.29330
H          3.97259        4.18635        5.46229
H          4.05354        5.92318        5.69758
C          2.33775        7.79820        4.50459
C          0.82775        6.43588        3.06995
C          0.49525        6.43236        5.51999
H          2.89018        8.06266        3.58858
H          1.61337        8.63739        4.59381
H          3.01778        7.86103        5.37286
H          0.18497        5.53687        2.98329
H          0.18478        7.33336        2.94676
H          1.55748        6.45642        2.23852
H         -0.10461        5.50036        5.46696
H          0.93954        6.53803        6.52495
H         -0.20096        7.29216        5.38104
