110
speciation1915.ct
Na         1.11776        1.89823        0.36427
Mg         3.55232       -0.02284       -1.78331
C          0.06604        3.47514        2.94342
C          2.42927        3.64993        2.71416
O          1.25107        2.92842        2.36285
C         -0.16875        4.96732        2.67184
C          2.80972        3.54310        4.19525
H         -0.79772        2.91335        2.53236
H          0.03510        3.27767        4.03978
H          3.28314        3.23151        2.17460
H          2.38205        4.70308        2.37840
H          2.95991        2.48318        4.48856
H          3.76498        4.08807        4.35735
H          2.04642        4.00500        4.85289
H         -0.11143        5.16892        1.58545
H         -1.16959        5.26475        3.04918
H          0.57270        5.59659        3.20793
H          4.87894        2.39080       -0.64832
C          6.44431        2.22524       -2.00356
C          5.36903        1.55374       -1.17042
C          7.23483        3.24663       -1.14923
H          7.14580        1.46309       -2.36857
H          5.97564        2.74251       -2.86278
H          6.57957        4.08768       -0.83434
H          7.63371        2.77302       -0.22286
C          8.40305        3.79821       -1.94418
H          5.98767        1.08898       -0.37193
H          9.08326        2.96279       -2.21195
H          8.03087        4.28713       -2.86740
H          8.96207        4.53739       -1.33322
C         -2.01772        1.11706        0.01676
C         -2.67580       -0.08573       -0.11526
C         -1.71713       -1.07259       -0.07608
C         -0.50249       -0.42994        0.06041
N         -0.68831        0.90502        0.12532
C          0.84586       -1.14117        0.13202
N          2.04487       -0.21820        0.06443
C          2.77065       -0.31897        1.36381
H         -3.74328       -0.22372       -0.22835
H         -2.48879        2.08376        0.02808
H         -1.88779       -2.13837       -0.15258
H          0.92127       -1.96683       -0.59095
H          0.78395       -1.75526        1.04911
C          3.47042       -1.68551        1.58715
C          3.81362        0.72493        1.26361
C          1.86502       -0.03167        2.59478
H          4.10729       -1.94725        0.72986
H          4.12500       -1.63007        2.48469
H          2.75336       -2.51526        1.73434
H          3.37699        1.65877        0.86417
H          4.40192        0.88891        2.18491
H          4.44823        0.26563        0.52698
H          1.10685        0.71729        2.35986
H          1.28528       -0.91644        2.92291
H          2.47075        0.28171        3.47131
Na         2.50762        4.78522       -4.65389
Mg         1.52731        2.21191       -3.23330
C          2.66128        3.52821       -1.69200
C          0.51733        4.39229       -1.47719
O          1.34841        3.27638       -1.25378
C          3.40690        4.63125       -0.92954
C         -0.90179        3.99994       -1.17202
H          3.13498        2.55175       -1.62613
H          2.70399        3.74463       -2.77327
H          0.79140        5.24941       -0.82545
H          0.54952        4.68862       -2.55220
H         -0.96241        3.73248       -0.09921
H         -1.58605        4.84704       -1.37833
H         -1.18283        3.13137       -1.80488
H          3.38492        4.45258        0.15978
H          4.45815        4.66581       -1.27287
H          2.97706        5.62881       -1.15483
H          5.05637       -2.39281       -1.10256
C          5.93216       -2.38408       -3.01470
C          4.71295       -2.06936       -2.10462
C          7.20476       -1.66513       -2.54301
H          6.15508       -3.47906       -2.97961
H          5.69646       -2.11934       -4.06528
H          6.98621       -0.59599       -2.51961
H          7.47720       -2.00086       -1.51698
C          8.41046       -1.88714       -3.46293
H          3.91137       -2.78054       -2.39833
H          8.69960       -2.95906       -3.50195
H          8.18686       -1.52939       -4.49005
H          9.27906       -1.30760       -3.07814
C          1.93605        3.49523       -7.23511
C          1.94331        2.40510       -8.06888
C          2.45261        1.35656       -7.34548
C          2.72325        1.83827       -6.05762
N          2.39734        3.16405       -6.01592
C          3.35998        1.00450       -4.92637
N          2.50246        0.64338       -3.74992
C          1.34882       -0.24614       -4.10706
H          1.62928        2.39544       -9.12109
H          1.61338        4.49434       -7.52200
H          2.60296        0.35380       -7.71717
H          4.23247        1.58210       -4.57305
H          3.77563        0.07760       -5.36898
C          1.74170       -1.53673       -4.87126
C          0.77440       -0.66512       -2.80032
C          0.21365        0.48998       -4.86641
H          2.51055       -2.11343       -4.31637
H          0.84872       -2.19421       -4.99041
H          2.11201       -1.32382       -5.89240
H          0.48694        0.24242       -2.22985
H         -0.10901       -1.33472       -2.90374
H          1.60733       -1.19873       -2.31570
H         -0.09094        1.41696       -4.33735
H          0.46743        0.73706       -5.90483
H         -0.68545       -0.16265       -4.94466
