70
speciation1461.ct
Na         1.50165       -0.09875        0.18256
Mg         4.18764        0.62062        1.88016
C          3.74624        3.06416        3.70793
C          1.80987        2.31984        2.55252
O          3.23750        2.27223        2.63628
C          3.09653        2.84160        5.09343
C          1.25458        3.72110        2.18992
H          4.83039        2.83741        3.81049
H          3.69103        4.13627        3.44343
H          1.49012        1.60585        1.77883
H          1.31570        1.93208        3.46530
H          1.69154        4.12735        1.25715
H          0.15443        3.66848        2.04567
H          1.44756        4.46491        2.99003
H          3.17681        1.77924        5.39934
H          3.60551        3.47922        5.84674
H          2.03110        3.15690        5.10644
H          3.63707       -0.75923        4.07858
C          3.77708       -2.49278        2.77670
C          3.37517       -1.02750        3.03303
C          3.11382       -3.45019        3.77749
H          3.46542       -2.79672        1.76375
H          4.87656       -2.59975        2.85206
H          3.42231       -3.17497        4.80987
H          2.00702       -3.37313        3.70305
C          3.52281       -4.90015        3.51652
H          2.27531       -0.93642        2.90662
H          3.18225       -5.22793        2.51072
H          4.62656       -5.01120        3.57928
H          3.05977       -5.56450        4.27767
C          7.57115       -1.39224       -0.97002
C          7.22816       -1.46176       -2.29931
C          5.85200       -1.35315       -2.37366
C          5.37823       -1.19060       -1.13487
N          6.42135       -1.20917       -0.18785
C          3.93087       -1.03755       -0.78024
N          3.57416        0.26964       -0.16973
C          3.54614        1.41311       -1.15858
H          7.91846       -1.57745       -3.12387
H          8.57856       -1.44576       -0.57364
H          5.26233       -1.37461       -3.28211
H          3.66369       -1.84563       -0.09323
H          3.29924       -1.24383       -1.66785
C          2.70759        1.09506       -2.43094
C          2.84704        2.57816       -0.49028
C          4.94290        1.88776       -1.57765
H          1.69190        0.73289       -2.15837
H          2.58373        2.00873       -3.05335
H          3.19552        0.34834       -3.08929
H          3.43555        2.88791        0.39558
H          2.78129        3.46548       -1.15531
H          1.81120        2.29680       -0.22786
H          5.55492        2.10002       -0.69016
H          5.46686        1.15879       -2.21264
H          4.86704        2.81864       -2.18073
C          6.80425       -0.23082        3.18677
C          7.13849        1.65692        1.77983
O          6.22881        0.63045        2.19187
C          7.47701        0.44528        4.40794
C          8.38441        1.14190        1.01973
H          6.00705       -0.85987        3.61109
H          7.51675       -0.94162        2.71888
H          6.62583        2.39197        1.14174
H          7.45609        2.26928        2.64410
H          8.11975        0.87077       -0.01662
H          9.14923        1.94041        0.95084
H          8.88315        0.27799        1.51179
H          6.74805        1.07189        4.96256
H          7.86569       -0.33652        5.09843
H          8.36433        1.05204        4.13441
