80
speciation897.ct
Na         1.31983        1.71101        0.24887
Mg        -1.24053        6.25915       -1.76009
H         -1.64756        3.89325       -2.90672
C         -3.69540        4.17668       -2.27308
C         -2.19199        4.33483       -2.04365
C         -4.17580        4.94272       -3.50559
H         -3.91972        3.09231       -2.40477
H         -4.23636        4.53770       -1.37310
H         -3.96410        6.02345       -3.36709
H         -3.63995        4.58148       -4.41074
C         -5.67847        4.75000       -3.71370
H         -1.95059        3.73070       -1.14474
H         -5.91269        3.67896       -3.89752
H         -6.24157        5.09272       -2.81931
H         -6.01408        5.34056       -4.59186
C         -0.53758        0.51661        2.54665
C         -1.15448       -0.70106        2.75226
C         -0.80458       -1.50756        1.68504
C          0.01866       -0.74361        0.88318
N          0.16375        0.47889        1.40051
C          0.68335       -1.16145       -0.39338
N          1.53364       -0.07031       -0.93068
C          2.99755       -0.29046       -0.91304
H         -1.78996       -0.96675        3.58570
H         -0.60526        1.38289        3.19190
H         -1.11030       -2.53142        1.51870
H         -0.10818       -1.39938       -1.13457
H          1.25236       -2.08667       -0.19406
C          3.41391       -1.52992       -1.73839
C          3.65505        0.94196       -1.56024
C          3.50411       -0.41110        0.53847
H          3.05219       -1.44050       -2.78470
H          4.52231       -1.61876       -1.75862
H          3.03130       -2.47814       -1.31500
H          3.40465        1.86240       -0.99854
H          4.76198        0.84359       -1.57459
H          3.30349        1.06744       -2.60747
H          3.21075        0.48522        1.12651
H          3.08375       -1.30669        1.03977
H          4.61191       -0.49189        0.56129
Na         0.90442        0.33330       -2.93469
Mg         3.86378        3.90333        0.17835
H         -3.34797        7.63896       -0.84170
C         -1.88180        9.24082       -1.00275
C         -2.26007        7.78114       -0.69264
C         -2.14142        9.66051       -2.45919
H         -2.45790        9.91641       -0.33117
H         -0.80311        9.39018       -0.78206
H         -1.82374       10.72165       -2.57455
H         -1.53115        9.04013       -3.14899
C         -3.61541        9.56828       -2.85699
H         -2.04283        7.58863        0.37945
H         -3.96524        8.51718       -2.83362
H         -4.24117       10.18060       -2.17300
H         -3.74693        9.94670       -3.89253
C          1.42664        7.56677       -2.08011
C          2.78634        7.34214       -1.97931
C          2.94483        6.02475       -1.61302
C          1.67278        5.50379       -1.50264
N          0.74295        6.43864       -1.79234
C          1.35262        4.10604       -1.10280
N          1.91684        3.73814        0.20669
C          1.35413        4.33829        1.43627
H          3.57800        8.06027       -2.14702
H          0.96176        8.50406       -2.34529
H          3.87921        5.50897       -1.43550
H          1.79647        3.43897       -1.86668
H          0.27346        3.92268       -1.12021
C         -0.17440        4.15424        1.51370
C          2.00195        3.60003        2.62660
C          1.69806        5.83534        1.57618
H         -0.44606        3.08648        1.40770
H         -0.56696        4.52243        2.48538
H         -0.68761        4.72785        0.71631
H          3.10604        3.73193        2.60815
H          1.62111        3.99088        3.59565
H          1.78774        2.51213        2.58158
H          2.79624        5.99423        1.52496
H          1.20474        6.44780        0.80071
H          1.33088        6.22612        2.54990
