110
speciation2244.ct
Na         1.06929       -0.05966        0.04048
Mg         4.28764       -0.80652       -1.74687
C         -1.79225        1.00175        0.80707
C         -1.79886       -1.27965        0.51191
O         -1.25071       -0.05966        0.04048
C         -1.22837        2.33912        0.35202
C         -1.26372       -2.46415       -0.28139
H         -2.89455        1.05226        0.64855
H         -1.57287        0.87761        1.89243
H         -1.56938       -1.44184        1.59019
H         -2.90290       -1.27637        0.35904
H         -0.17723       -2.58892       -0.12114
H         -1.77361       -3.39139        0.06022
H         -1.45803       -2.32743       -1.36491
H         -1.41448        2.48838       -0.73224
H         -1.73285        3.15609        0.91357
H         -0.13844        2.38833        0.55415
H          3.47239       -3.36933       -1.54199
C          3.66253       -3.33390       -3.71475
C          3.29679       -2.65776       -2.37134
C          2.91300       -4.67340       -3.90004
H          3.43637       -2.65908       -4.56542
H          4.74797       -3.53685       -3.71509
H          3.12063       -5.30505       -3.01292
H          1.81448       -4.50590       -3.96769
C          3.37037       -5.47001       -5.13117
H          2.21246       -2.40813       -2.40133
H          3.06344       -4.98657       -6.08296
H          4.47357       -5.60025       -5.12712
H          2.91245       -6.48419       -5.09880
C          5.05107        4.36203       -2.49871
C          5.59455        3.47074       -3.33655
C          5.33355        2.23907       -2.75285
C          4.59105        2.39081       -1.51340
N          4.61507        3.77786       -1.39447
C          3.86004        1.46430       -0.23669
N          3.43929       -0.05966        0.04048
C          3.35740       -0.89009        1.32674
H          6.18958        3.68877       -4.23215
H          5.21490        5.43938       -2.65002
H          5.73523        1.40075       -3.27558
H          4.24398        1.86037        0.71533
H          2.87037        1.95630       -0.27056
C          3.17313       -0.04351        2.59624
C          2.15580       -1.89035        1.27747
C          4.54121       -1.84479        1.51076
H          2.25621        0.57445        2.53162
H          3.08673       -0.71133        3.48585
H          4.04507        0.61139        2.76612
H          2.19227       -2.52400        0.36678
H          2.16049       -2.57704        2.15444
H          1.16134       -1.44381        1.42112
H          4.86264       -2.23319        0.53753
H          5.30129       -1.41905        2.14992
H          4.30084       -2.73847        2.13445
Na         6.70680       -1.22644       -3.42530
Mg         6.06659        4.12763       -0.25153
C          2.49261        1.21559       -3.39198
C          4.15511        0.17958       -4.74726
O          3.70233        0.43716       -3.40284
C          1.32790        0.60871       -4.16893
C          4.40110        1.41549       -5.67625
H          2.15580        1.33765       -2.34858
H          2.67817        2.26327       -3.73847
H          5.12725       -0.33781       -4.68766
H          3.45705       -0.50035       -5.25609
H          5.23952        2.05483       -5.36904
H          4.70690        1.06485       -6.68271
H          3.50867        2.06063       -5.81465
H          1.15612       -0.42302       -3.80940
H          0.41499        1.22053       -4.00635
H          1.52639        0.61031       -5.26116
H          5.69566        6.17056        1.24157
C          6.56885        7.20111       -0.46437
C          6.51130        6.01837        0.50582
C          6.72646        8.55826        0.25042
H          7.41018        7.05025       -1.17467
H          5.62326        7.23256       -1.04524
H          6.75382        9.35589       -0.52373
H          5.84692        8.74688        0.90490
C          7.99989        8.66151        1.09135
H          7.48033        5.91066        1.03346
H          7.97103        7.94844        1.94114
H          8.89386        8.45766        0.46588
H          8.08438        9.68497        1.51453
C          6.38924        2.65960        1.77605
C          6.52652        1.51056        2.47201
C          6.85595        0.56693        1.55703
C          6.88887        1.09978        0.31967
N          6.57025        2.43111        0.46753
C          7.13665        0.30499       -0.99618
N          6.51968       -1.02042       -1.29669
C          7.42250       -2.19163       -0.94959
H          6.37603        1.37443        3.52595
H          6.11297        3.61992        2.17669
H          6.98524       -0.43053        1.83937
H          8.08721        0.51246       -1.52834
H          6.50906        0.82710       -1.56660
C          7.86461       -2.25824        0.52421
C          6.71061       -3.50174       -1.31583
C          8.75890       -2.15837       -1.74206
H          7.02652       -2.43755        1.20815
H          8.55907       -3.10027        0.71550
H          8.46662       -1.35796        0.77467
H          6.54733       -3.54720       -2.40738
H          7.32254       -4.38087       -1.01821
H          5.73408       -3.60199       -0.81560
H          8.60938       -2.17371       -2.83618
H          9.38288       -1.28145       -1.47009
H          9.36772       -3.05766       -1.48797
