110
speciation1875.ct
Na         1.03774        0.52722        0.00105
Mg        -0.37592       -5.46001       -3.73522
C          0.42628        2.40438       -2.40705
C          0.34859        4.22536       -1.02434
O          0.37468        2.75532       -1.03019
C          1.76919        2.72736       -3.10131
C          0.11459        4.97284        0.29786
H          0.28784        1.31419       -2.46506
H         -0.42043        2.84333       -2.99216
H          1.28339        4.66837       -1.42636
H         -0.47385        4.61426       -1.67031
H         -0.88410        4.76556        0.72206
H          0.92025        4.80555        1.03313
H          0.12439        6.08669        0.08239
H          2.61083        2.38997       -2.51038
H          1.79751        2.27639       -4.11232
H          1.89232        3.84752       -3.29636
H         -1.76160       -3.09473       -4.47218
C         -2.91644       -4.62255       -5.36408
C         -1.55532       -4.00996       -5.06085
C         -3.46086       -5.24957       -4.06604
H         -3.60684       -3.86893       -5.81503
H         -2.74336       -5.41928       -6.11484
H         -3.67996       -6.32321       -4.21640
H         -2.66158       -5.24842       -3.30965
C         -4.67695       -4.54842       -3.46531
H         -1.07575       -3.65443       -6.00083
H         -4.60838       -3.44324       -3.53770
H         -5.60395       -4.90271       -3.96410
H         -4.74055       -4.82157       -2.38887
C          2.56714       -4.83219       -3.54701
C          3.55290       -3.91369       -3.25866
C          2.90614       -2.74369       -2.97857
C          1.54942       -2.98448       -3.01598
N          1.32486       -4.28598       -3.42074
C          0.50289       -1.93264       -2.62000
N          0.12952       -1.82065       -1.15650
C         -0.31147       -3.19088       -0.57295
H          4.62754       -4.06559       -3.25879
H          2.75746       -5.86592       -3.80426
H          3.38193       -1.81004       -2.70407
H         -0.38836       -2.07339       -3.22826
H          0.86273       -0.94579       -2.96832
C          0.77236       -4.31193       -0.38198
C         -0.87463       -3.00495        0.82323
C         -1.45589       -3.83212       -1.39619
H          1.56479       -4.06630        0.31124
H          0.30937       -5.21292        0.07818
H          1.23359       -4.74556       -1.25193
H         -1.72972       -2.30210        0.81505
H         -1.23673       -3.97270        1.24885
H         -0.05423       -2.66572        1.46956
H         -2.40651       -3.26264       -1.32741
H         -1.16617       -3.93877       -2.44276
H         -1.68397       -4.86559       -1.04346
Na        -1.83756       -1.00146       -1.43647
Mg         3.42639        0.19571       -2.10817
C         -0.39110        1.48468        2.86065
C          0.70955       -0.59272        3.16948
O          0.50988        0.53121        2.29174
C         -0.03379        1.93730        4.30288
C         -0.57891       -1.30512        3.62159
H         -0.35789        2.39562        2.23474
H         -1.43513        1.10086        2.83161
H          1.31018       -1.35267        2.66708
H          1.34609       -0.33493        4.04467
H         -0.32625       -2.30601        4.03742
H         -1.27173       -1.41781        2.77691
H         -1.13170       -0.74247        4.39250
H          0.98784        2.36865        4.34837
H         -0.76297        2.69830        4.65525
H         -0.08566        1.11287        5.04447
H         -2.02476       -7.92936       -3.56678
C         -0.64181       -8.77670       -2.14601
C         -0.94271       -7.81326       -3.35102
C         -1.31257       -8.43625       -0.79406
H         -0.91105       -9.83398       -2.39720
H          0.45586       -8.76708       -1.98415
H         -0.80789       -9.02529        0.00705
H         -1.15535       -7.36218       -0.58320
C         -2.80140       -8.79823       -0.67395
H         -0.41759       -8.28435       -4.21338
H         -3.41475       -8.32292       -1.46264
H         -2.94874       -9.90267       -0.70520
H         -3.17451       -8.45575        0.31884
C          3.69184        4.89437       -0.69102
C          4.69472        4.65807       -1.60715
C          5.06924        3.33817       -1.47106
C          4.31126        2.78487       -0.52045
N          3.39534        3.71533        0.01503
C          4.52310        1.41980        0.03074
N          3.42727        0.43477       -0.16894
C          3.82050       -0.84147        0.50933
H          5.13580        5.38663       -2.27061
H          3.20403        5.84547       -0.52758
H          5.88186        2.84871       -1.99984
H          4.74477        1.58785        1.09365
H          5.43444        1.02379       -0.47381
C          4.04421       -0.66961        2.02933
C          2.68111       -1.80261        0.35054
C          5.07334       -1.51507       -0.11561
H          3.20890       -0.10910        2.48333
H          4.14267       -1.65723        2.53049
H          4.98520       -0.13586        2.26132
H          2.52878       -2.04544       -0.68910
H          2.93029       -2.71555        0.92234
H          1.74270       -1.37304        0.69776
H          4.97968       -1.61856       -1.21246
H          6.00332       -0.95508        0.10017
H          5.22235       -2.53200        0.30934
