80
speciation975.ct
Na         0.93197       -0.03054        0.06662
Mg         1.59679        0.17863        3.12074
H          2.99122        2.48831        3.12540
C          2.00937        2.70969        5.02720
C          2.02305        2.20290        3.58245
C          3.09490        2.06943        5.89865
H          2.18012        3.80928        4.99750
H          1.01050        2.52007        5.47449
H          2.91282        0.97450        5.97726
H          4.09488        2.23634        5.44543
C          3.09223        2.68211        7.30143
H          1.22010        2.73195        3.03409
H          3.30028        3.77394        7.24665
H          2.10877        2.52997        7.79523
H          3.87988        2.20952        7.92540
C         -0.26006       -0.67604        4.69489
C         -1.47605       -1.24749        4.95386
C         -2.09932       -1.38999        3.71397
C         -1.22224       -0.92300        2.71923
N         -0.10623       -0.47884        3.37140
C         -1.46421       -1.10345        1.15934
N         -1.43803       -0.03054        0.06662
C         -2.05190        1.27434        0.45450
H         -1.83736       -1.54886        5.93439
H          0.50212       -0.47153        5.44525
H         -3.05795       -1.85121        3.58195
H         -0.68756       -1.83404        0.87157
H         -2.43419       -1.63036        1.08042
C         -1.18548        2.03720        1.48318
C         -2.14487        2.16648       -0.79503
C         -3.47988        1.08820        1.01952
H         -0.15714        2.19138        1.08998
H         -1.62543        3.03455        1.70115
H         -1.12347        1.54158        2.45779
H         -2.76956        1.68690       -1.57691
H         -2.61078        3.14506       -0.53847
H         -1.13609        2.36642       -1.21548
H         -4.14381        0.61941        0.26340
H         -3.48261        0.46001        1.93159
H         -3.91290        2.07173        1.30592
Na        -2.29256       -0.80541       -1.73134
Mg         3.96529        1.65527       -0.75687
H          3.87059        4.15941       -1.42133
C          4.90546        3.27633       -3.09856
C          4.64528        3.38344       -1.60106
C          3.61124        2.93968       -3.84892
H          5.29442        4.25214       -3.46336
H          5.67044        2.49116       -3.27937
H          3.21023        1.97554       -3.49134
H          2.84432        3.72096       -3.65611
C          3.84950        2.84549       -5.35194
H          5.57008        3.68036       -1.06329
H          4.19910        3.82347       -5.74518
H          4.60880        2.06630       -5.57586
H          2.90071        2.57490       -5.86203
C          2.73498       -2.54990        3.63077
C          3.84858       -3.26175        3.23991
C          4.55950       -2.43655        2.38665
C          3.80325       -1.27389        2.24319
N          2.73482       -1.33994        3.03205
C          4.04793       -0.05950        1.36863
N          3.30197       -0.03054        0.06662
C          3.63203       -1.18934       -0.85034
H          4.10976       -4.27043        3.54049
H          1.96957       -2.90014        4.31002
H          5.47985       -2.70324        1.89222
H          5.13297        0.08530        1.21830
H          3.73976        0.81598        1.95136
C          2.96806       -2.53635       -0.44448
C          3.06503       -0.89408       -2.24156
C          5.17312       -1.35975       -0.99784
H          1.85889       -2.43980       -0.42410
H          3.22983       -3.32579       -1.18246
H          3.24834       -2.98299        0.49821
H          3.50960        0.02024       -2.66773
H          3.29305       -1.73817       -2.93354
H          1.95980       -0.79284       -2.19242
H          5.63960       -0.40219       -1.31501
H          5.64551       -1.66537       -0.06020
H          5.41341       -2.14290       -1.73950
