110
speciation2532.ct
Na        -2.35100       -0.65514       -1.15190
Li        -1.47785        2.41575        4.88614
C          0.73513        4.66552        5.47237
C          1.28397        2.98680        3.92077
O          0.45581        3.30820        5.01109
C          0.70172        5.81740        4.43691
C          2.76791        2.84591        4.28891
H          0.11672        4.92088        6.35014
H          1.73920        4.76076        5.94725
H          1.01593        2.04945        3.43047
H          1.11936        3.67604        3.05949
H          2.96227        1.90421        4.85282
H          3.44694        3.02286        3.41946
H          3.07210        3.64350        4.97548
H         -0.33882        6.04053        4.17786
H          1.16163        6.74058        4.85365
H          1.31543        5.64113        3.52904
H         -3.65236        2.16433        6.54866
C         -3.35585        4.26184        6.88408
C         -2.79682        2.88291        6.53626
C         -4.32275        4.20727        8.08361
H         -2.51480        4.94446        7.10333
H         -3.92665        4.64438        6.00766
H         -5.17081        3.53315        7.82352
H         -3.84451        3.80151        9.00391
C         -4.85304        5.61396        8.38169
H         -2.09897        2.55921        7.32235
H         -5.06284        6.16205        7.43772
H         -4.08873        6.19002        8.94220
H         -5.78958        5.56597        8.97745
C         -2.48674        4.34510        2.92521
C         -3.11240        4.57715        1.72806
C         -3.29238        3.36965        1.15381
C         -2.70946        2.42633        1.96112
N         -2.29774        3.01969        3.11836
C         -2.46085        0.95648        1.61891
N         -1.71129        0.69202        0.34078
C         -0.30081        1.09748        0.16033
H         -3.39321        5.53342        1.30173
H         -2.19227        5.12140        3.59709
H         -3.74598        3.29569        0.19136
H         -3.42110        0.42003        1.66734
H         -1.84367        0.54083        2.41166
C          0.61660        0.44069        1.17639
C          0.17717        0.67880       -1.26145
C         -0.19616        2.61298        0.26812
H          0.68240       -0.66016        1.03986
H          1.63946        0.86434        1.06249
H          0.25861        0.62126        2.19322
H         -0.45975        1.02756       -2.08889
H          1.16071        1.12680       -1.48961
H          0.23750       -0.42731       -1.36060
H         -0.71436        3.08215       -0.59162
H         -0.58751        2.94809        1.21885
H          0.84819        2.95205        0.33361
Na        -2.39170        1.10497       -1.62515
Li        -2.17252       -3.96809       -3.57530
C         -2.74651       -0.46188        4.63546
C         -1.31092       -0.10875        6.48334
O         -1.69609        0.37265        5.17985
C         -3.97278       -0.75433        5.49480
C         -0.60588       -1.43341        6.28837
H         -3.20167       -0.02278        3.76513
H         -2.35387       -1.42105        4.20945
H         -0.63690        0.59484        7.00734
H         -2.16486       -0.20665        7.19794
H          0.28833       -1.24879        5.65107
H         -0.37134       -1.95949        7.24372
H         -1.26241       -2.13457        5.79214
H         -4.45455        0.20808        5.73929
H         -4.69363       -1.38642        4.92730
H         -3.71253       -1.34753        6.39140
H         -3.58826       -6.15830       -3.23716
C         -3.02290       -5.43911       -1.23956
C         -2.69997       -5.73984       -2.72809
C         -1.83734       -4.83083       -0.44487
H         -3.89290       -4.75242       -1.14420
H         -3.28831       -6.40020       -0.74602
H         -2.13673       -4.69174        0.62545
H         -0.96026       -5.50991       -0.46493
C         -1.44797       -3.46969       -0.99059
H         -1.82193       -6.35446       -2.78546
H         -1.11614       -3.55339       -2.04023
H         -2.33823       -2.81844       -0.92377
H         -0.61245       -3.02429       -0.41098
C         -0.43051       -2.23049       -4.93232
C          0.00281       -0.92809       -5.10267
C         -1.06362       -0.14100       -4.72487
C         -2.12702       -1.00243       -4.40734
N         -1.65483       -2.27909       -4.42894
C         -3.54468       -0.65543       -3.99986
N         -3.65763       -0.08546       -2.65534
C         -4.97992        0.19613       -2.09392
H          0.98945       -0.59323       -5.40341
H          0.23512       -3.10341       -5.08350
H         -1.02421        0.93960       -4.68885
H         -4.15823       -1.57472       -4.09799
H         -3.91312        0.05311       -4.74552
C         -5.78720       -1.06803       -1.87924
C         -4.79792        0.83385       -0.72540
C         -5.75644        1.19703       -2.96886
H         -5.30106       -1.69923       -1.09778
H         -6.81201       -0.81287       -1.54609
H         -5.85234       -1.63376       -2.81312
H         -4.13463        1.68122       -0.83360
H         -5.72534        1.20157       -0.25082
H         -4.31748        0.08085       -0.08740
H         -5.29264        2.20431       -2.86517
H         -5.75600        0.85034       -4.00879
H         -6.81404        1.26810       -2.65005
