96
speciation1568.ct
Na        -2.89969       -1.75262       -2.62814
Mg         2.65404        1.82865       -2.34444
C          2.53197        2.31210        0.51965
C          0.38143        2.48365       -0.26276
O          1.74731        2.51841       -0.64870
C          2.49217        0.88744        1.10069
C         -0.52330        2.57249       -1.44505
H          3.55162        2.53394        0.24729
H          2.29943        3.06745        1.30601
H          0.13873        1.56786        0.27127
H          0.12830        3.32495        0.41529
H         -0.21780        1.78497       -2.13722
H         -1.57822        2.39594       -1.15150
H         -0.42359        3.57953       -1.89014
H          2.71522        0.14083        0.31374
H          3.24673        0.79989        1.91094
H          1.51656        0.64968        1.57205
H          5.54507        2.50404       -2.83156
C          5.99420        2.32982       -0.74699
C          4.97342        2.62709       -1.88558
C          6.37779        0.86085       -0.71344
H          6.91662        2.95048       -0.86775
H          5.59522        2.62019        0.24406
H          5.44593        0.27552       -0.62527
H          6.91269        0.59383       -1.65156
C          7.25125        0.52684        0.49487
H          4.83528        3.71615       -1.72567
H          8.22623        1.05617        0.44765
H          6.72847        0.81052        1.43447
H          7.43512       -0.56776        0.51778
C          3.51550       -1.20527       -2.41207
C          3.24193       -2.56238       -2.53166
C          1.90056       -2.66770       -2.69824
C          1.38772       -1.38624       -2.63531
N          2.38896       -0.43570       -2.47525
C         -0.11094       -1.22158       -2.77025
N         -0.90302       -2.24620       -2.02404
C         -0.92926       -2.22973       -0.53573
H          3.92625       -3.40458       -2.50867
H          4.51180       -0.82526       -2.29082
H          1.33682       -3.59031       -2.82231
H         -0.33841       -1.41171       -3.84135
H         -0.46663       -0.20823       -2.58646
C         -1.25658       -0.82963       -0.04694
C         -2.03237       -3.18436       -0.02425
C          0.40681       -2.71382        0.06695
H         -2.21766       -0.46970       -0.47355
H         -1.29051       -0.76646        1.06126
H         -0.44230       -0.20778       -0.40897
H         -1.78159       -4.24621       -0.23324
H         -2.14872       -3.08319        1.07998
H         -3.01566       -2.95757       -0.48514
H          0.64486       -3.73294       -0.31065
H          1.24271       -2.03223       -0.17267
H          0.34851       -2.76311        1.17536
Mg         2.87001        1.39051       -5.46955
C          2.90951       -0.13357       -7.74565
C          4.12324       -1.28247       -6.06242
O          3.72101       -0.01045       -6.57238
C          1.71272       -1.11100       -7.66356
C          5.17176       -1.96562       -6.96411
H          2.49282        0.86757       -7.94143
H          3.52199       -0.34266       -8.64923
H          4.57945       -1.14997       -5.06651
H          3.26363       -1.96109       -5.89283
H          6.14010       -1.42590       -6.91206
H          5.33302       -3.01524       -6.63692
H          4.85315       -2.01214       -8.02607
H          1.10024       -0.90683       -6.75975
H          1.07251       -1.00027       -8.56355
H          2.05019       -2.17035       -7.65559
C         -0.21445        2.64565       -8.16042
C         -1.36433        3.15538       -7.60217
C         -1.21374        3.09247       -6.22915
C         -0.01484        2.55850       -5.95337
N          0.65961        2.22024       -7.14315
C          0.54136        2.39056       -4.55144
N          1.94941        2.80640       -4.31061
C          2.20488        4.29532       -4.61295
H         -2.21232        3.55445       -8.14579
H         -0.00806        2.58483       -9.22095
H         -1.93685        3.44023       -5.50242
H          0.47736        1.31336       -4.30881
H         -0.13361        2.96490       -3.91057
C          1.35827        5.24682       -3.72434
C          3.67872        4.63074       -4.36506
C          1.95871        4.72743       -6.09168
H          1.47489        5.00939       -2.64900
H          1.68336        6.30456       -3.87688
H          0.28643        5.21426       -4.00557
H          4.35870        4.00604       -4.98438
H          3.90121        5.70133       -4.59173
H          3.89290        4.51337       -3.31118
H          2.53267        4.09668       -6.80254
H          0.89329        4.75937       -6.36430
H          2.27248        5.78523       -6.25455
