81
speciation376.ct
Na         1.09279        1.69533        0.36492
Mg         3.38218        0.08335       -1.63630
C          1.20023        1.84787        3.75609
C         -0.29994        3.05648        2.40707
O          0.97166        2.45267        2.46472
C          0.16474        0.79467        4.25149
C         -0.36133        4.32891        3.23094
H          2.21772        1.41427        3.77355
H          1.33487        2.61056        4.54661
H         -0.49571        3.31491        1.34951
H         -1.10500        2.33890        2.67350
H          0.35834        5.05732        2.82209
H         -1.38650        4.73872        3.17440
H         -0.12973        4.15330        4.30202
H         -0.06417        0.01349        3.49863
H          0.55036        0.28413        5.16248
H         -0.79116        1.27263        4.54263
H          5.53651       -0.28618       -3.02738
C          4.73468        1.52518       -3.90272
C          4.54792        0.13496       -3.30961
C          5.41420        2.45984       -2.89770
H          5.36774        1.43897       -4.81310
H          3.74316        1.93433       -4.19054
H          4.77912        2.55299       -1.99070
H          6.40062        2.04164       -2.59953
C          5.63712        3.84371       -3.50252
H          4.08105       -0.54069       -4.05668
H          6.29676        3.77213       -4.39385
H          4.66990        4.29510       -3.80492
H          6.12120        4.50670       -2.75482
C         -1.86080        0.73334       -0.16792
C         -2.36191       -0.51789       -0.46421
C         -1.27942       -1.37929       -0.51376
C         -0.16219       -0.61021       -0.25783
N         -0.52974        0.65610       -0.02300
C          1.27853       -1.08496       -0.23425
N          2.24500        0.03300       -0.00400
C          3.28566       -0.25672        1.02026
H         -3.39991       -0.77025       -0.63066
H         -2.43159        1.64749       -0.06702
H         -1.30804       -2.43988       -0.72285
H          1.52206       -1.56148       -1.20486
H          1.32659       -1.88139        0.52827
C          4.22389       -1.41251        0.61545
C          4.11903        1.02600        1.18467
C          2.64610       -0.66161        2.34980
H          4.73601       -1.20781       -0.34403
H          4.99376       -1.56647        1.40624
H          3.66103       -2.36639        0.51961
H          3.47091        1.89989        1.40339
H          4.85926        0.92008        2.00737
H          4.67886        1.23729        0.24721
H          1.73691       -0.08547        2.41150
H          2.30246       -1.71349        2.39043
H          3.33858       -0.53051        3.20948
Mg         2.08332        6.94699       -2.46896
C          0.71629        2.42304       -2.64462
C          1.03386        3.27320       -3.68573
C          1.81239        4.27056       -3.14733
C          1.94245        3.97378       -1.80824
N          1.24874        2.86578       -1.48474
C          2.77176        4.72530       -0.83861
N          2.28309        6.10448       -0.71590
C          3.06553        6.96776        0.19187
H          0.75101        3.16529       -4.72043
H          0.13854        1.51313       -2.74310
H          2.26634        5.09281       -3.69032
H          2.71636        4.20114        0.13510
H          3.80650        4.69544       -1.22903
C          4.55574        7.03520       -0.21381
C          2.47880        8.38429        0.10160
C          2.94116        6.47270        1.64498
H          4.65722        7.37696       -1.26625
H          5.10248        7.74282        0.44477
H          5.06051        6.05374       -0.10476
H          1.40575        8.38688        0.38954
H          3.02547        9.07758        0.77852
H          2.56288        8.77469       -0.93564
H          1.87151        6.42307        1.92778
H          3.39405        5.46916        1.78087
H          3.45751        7.16248        2.34381
