110
speciation2503.ct
Na         7.71328        1.74007        0.58350
Mg         2.36102        4.84585       -0.57918
C          5.24176        5.20521       -0.39723
C          4.19145        7.30544       -0.50015
O          4.04843        5.90608       -0.67338
C          5.65626        5.24826        1.07764
C          5.23787        7.93770       -1.44586
H          5.06855        4.19851       -0.76358
H          6.07911        5.49659       -1.05561
H          3.22153        7.75667       -0.70672
H          4.40496        7.56525        0.55529
H          5.00374        7.70662       -2.50658
H          5.26138        9.03630       -1.30640
H          6.26992        7.58924       -1.22563
H          4.81023        4.94913        1.72925
H          6.51161        4.56296        1.24603
H          5.99419        6.26663        1.35881
H          1.54709        5.56066       -3.18800
C          0.37695        7.25241       -2.47132
C          1.02397        5.83780       -2.25759
C          1.29476        8.40958       -2.85990
H         -0.36730        7.16614       -3.29246
H         -0.20309        7.58386       -1.58723
H          0.66214        9.31134       -3.03062
H          1.97661        8.67294       -2.04292
C          2.07515        8.11919       -4.13340
H          0.11677        5.21075       -2.19042
H          2.75703        7.26089       -3.98251
H          1.36983        7.89739       -4.96300
H          2.68535        9.00526       -4.40132
C          6.15262       -0.79179        0.73337
C          4.96219       -1.45630        0.86355
C          3.98515       -0.48712        0.84975
C          4.58443        0.74309        0.61009
N          5.93191        0.53143        0.62533
C          3.92404        2.15063        0.52042
N          3.04198        2.58241       -0.66388
C          1.79628        1.78575       -0.78765
H          4.83886       -2.51601        0.99573
H          7.13865       -1.24319        0.72927
H          2.94443       -0.70176        1.01887
H          3.39662        2.34357        1.47696
H          4.78929        2.80295        0.61299
C          1.02667        1.62896        0.53992
C          0.92384        2.60180       -1.69593
C          2.02767        0.41593       -1.49491
H          0.80509        2.63502        0.93199
H          0.06952        1.09801        0.38159
H          1.59070        1.07667        1.31425
H          1.50282        2.85614       -2.59736
H         -0.02473        2.07989       -1.94859
H          0.67624        3.52446       -1.16546
H          2.81511        0.47694       -2.26895
H          2.26408       -0.41423       -0.84234
H          1.08815        0.04204       -1.94710
Na         3.53463        0.13121       -4.80143
Mg         3.65720        2.37160       -2.76149
C         -0.16628        6.01038        0.80769
C          1.42635        5.16807        2.34103
O          1.08355        5.30572        0.97341
C         -0.20807        7.47929        1.29579
C          0.41015        4.37811        3.19392
H         -0.46835        5.98603       -0.23751
H         -1.01867        5.45631        1.23566
H          2.40459        4.65681        2.40754
H          1.59529        6.17890        2.78670
H          0.36956        3.31616        2.90038
H          0.70685        4.42503        4.25820
H         -0.62178        4.78085        3.16175
H          0.55727        8.10044        0.76603
H         -1.20168        7.91861        1.10033
H         -0.04121        7.55964        2.38764
H          6.32962        2.54766       -3.93217
C          6.74060        1.92760       -2.03090
C          5.86233        2.73454       -2.95456
C          8.24002        2.28755       -2.10849
H          6.37144        2.12026       -1.02727
H          6.61783        0.85280       -2.29425
H          8.80880        1.55663       -1.49232
H          8.61391        2.20203       -3.15192
C          8.53527        3.68338       -1.55490
H          5.96082        3.81690       -2.76133
H          8.04572        4.46815       -2.16281
H          8.17856        3.76209       -0.50620
H          9.62944        3.86836       -1.56242
C         -1.01380        4.58138       -4.90054
C         -1.40214        3.92912       -6.04529
C         -0.61317        2.78798       -6.15929
C          0.22732        2.74632       -5.11804
N          0.01469        3.85613       -4.28505
C          1.25414        1.65255       -4.85919
N          2.68156        2.09736       -4.74679
C          3.24587        2.68751       -6.01226
H         -2.17955        4.25757       -6.72412
H         -1.44340        5.50268       -4.53335
H         -0.67930        2.05790       -6.95396
H          1.15451        0.87412       -5.64096
H          0.96738        1.11937       -3.94180
C          2.73069        4.11899       -6.28070
C          4.75483        2.79657       -5.87607
C          2.99150        1.79089       -7.25351
H          2.91196        4.76625       -5.39331
H          3.26328        4.56152       -7.14896
H          1.66421        4.15861       -6.54101
H          5.18547        1.80433       -5.61593
H          5.23475        3.13677       -6.81823
H          4.97166        3.58007       -5.12881
H          3.43110        0.77954       -7.10689
H          1.91698        1.68748       -7.49582
H          3.46778        2.23490       -8.15479
