96
speciation1557.ct
Na         2.90484        5.22790        2.11333
Mg         2.29140        4.40417       -1.04435
C          4.03006        6.43322       -1.39818
C          1.86198        7.06100       -2.17623
O          2.81391        6.00965       -2.00327
C          3.91157        7.23396       -0.09729
C          2.30026        8.13656       -3.18522
H          4.60576        5.51101       -1.17234
H          4.63380        7.01449       -2.11041
H          0.92528        6.62256       -2.57742
H          1.60267        7.55187       -1.22136
H          2.34000        7.70667       -4.19927
H          1.54790        8.95141       -3.21654
H          3.27144        8.59339       -2.91440
H          3.32724        6.68212        0.64149
H          4.92058        7.39552        0.33180
H          3.45328        8.22935       -0.26227
H          0.86753        4.66653        1.24272
C         -0.64791        5.53516       -0.03198
C          0.81780        5.25733        0.30677
C         -1.46339        4.25408       -0.17563
H         -1.07772        6.12678        0.80691
H         -0.71875        6.14467       -0.95686
H         -1.09640        3.66962       -1.04369
H         -1.36801        3.65398        0.75764
C         -2.93691        4.56374       -0.39594
H          1.24252        6.24686        0.54473
H         -3.34116        5.14525        0.46073
H         -3.06713        5.14621       -1.33159
H         -3.50255        3.61214       -0.47875
C          5.87746        4.75333        1.76773
C          6.87376        3.90071        1.35469
C          6.24385        2.85326        0.72961
C          4.88913        3.12597        0.72872
N          4.66529        4.27038        1.41647
C          3.82567        2.17162        0.24569
N          3.10472        2.47562       -1.04223
C          2.03557        1.44982       -1.29608
H          7.93467        4.00190        1.52970
H          6.02835        5.65425        2.34543
H          6.73352        1.97770        0.35275
H          4.33196        1.18676        0.14635
H          3.11910        2.09530        1.08669
C          0.90275        1.56977       -0.26550
C          1.45620        1.71427       -2.67622
C          2.54849       -0.01838       -1.29443
H          0.60094        2.61707       -0.20209
H          0.02575        0.94366       -0.56325
H          1.19706        1.23227        0.74316
H          2.22802        1.54324       -3.45711
H          0.60900        1.03037       -2.90183
H          1.08345        2.75420       -2.69515
H          3.38266       -0.15887       -2.00920
H          2.87734       -0.35488       -0.28966
H          1.72422       -0.71303       -1.58468
Mg         4.10831        2.58572       -2.90852
C          6.73122        2.09766       -2.40243
C          6.03359        0.28617       -3.66607
O          5.80143        1.66199       -3.37039
C          8.06018        2.52434       -3.01850
C          5.03609       -0.25960       -4.66821
H          6.28178        2.98521       -1.91555
H          6.91423        1.32961       -1.62006
H          7.02989        0.18036       -4.16090
H          6.01220       -0.35786       -2.75668
H          5.06974        0.33461       -5.60572
H          5.30516       -1.31111       -4.90454
H          4.01409       -0.24103       -4.24299
H          7.90414        3.24475       -3.83966
H          8.68508        3.00875       -2.23896
H          8.61133        1.64669       -3.41162
C          2.10839        3.73610       -5.14762
C          2.13658        4.33806       -6.38840
C          3.45286        4.49183       -6.71180
C          4.17878        4.01874       -5.63091
N          3.37024        3.51462       -4.66768
C          5.66563        4.10212       -5.50988
N          6.22990        5.31527       -6.14418
C          6.01429        6.64411       -5.51268
H          1.28991        4.63617       -6.99211
H          1.18909        3.49154       -4.65219
H          3.85066        4.95009       -7.61205
H          5.95077        4.00105       -4.45814
H          6.08458        3.22394       -6.05482
C          6.51321        6.66919       -4.05828
C          6.81619        7.67517       -6.32419
C          4.54427        7.08227       -5.56344
H          7.59215        6.42682       -4.00390
H          6.35235        7.67831       -3.61621
H          5.96336        5.93292       -3.44437
H          6.50076        7.65514       -7.39029
H          6.64921        8.70367       -5.93384
H          7.90266        7.45505       -6.27515
H          4.16262        7.09202       -6.60663
H          3.92397        6.42056       -4.93484
H          4.43447        8.11332       -5.16620
