81
speciation631.ct
Na         3.70121       -0.01192        1.52620
Mg         3.42207       -0.23284       -1.51678
C          3.19142       -0.30505       -4.38903
C          1.34533        0.74637       -3.32538
O          2.38723       -0.21601       -3.20679
C          3.70500        0.99367       -5.02224
C          0.25596        0.32727       -4.32463
H          4.09693       -0.88391       -4.12847
H          2.65225       -0.89336       -5.16435
H          0.83278        0.81977       -2.35496
H          1.73227        1.76201       -3.55160
H         -0.19730       -0.63828       -4.01546
H         -0.54285        1.10003       -4.34994
H          0.65353        0.22897       -5.35564
H          4.29102        1.57963       -4.29935
H          4.37339        0.73110       -5.87097
H          2.88349        1.61137       -5.43647
H          5.01267        1.93033       -2.30582
C          5.29730        2.27907       -0.21948
C          4.40731        1.80820       -1.38917
C          5.82599        3.73551       -0.34352
H          4.73183        2.19463        0.72998
H          6.18099        1.60709       -0.16208
H          6.47210        3.93652        0.54428
H          6.47126        3.85144       -1.24526
C          4.74485        4.81473       -0.36927
H          3.52696        2.48139       -1.44393
H          4.14963        4.75508       -1.30241
H          4.07638        4.71673        0.51155
H          5.21807        5.82367       -0.33385
C          2.57075        2.19245        3.51185
C          1.39647        2.91962        3.46653
C          0.70862        2.50592        2.34232
C          1.49719        1.54238        1.75283
N          2.62014        1.35608        2.46364
C          1.15952        0.79549        0.48435
N          2.11704       -0.31246        0.22650
C          1.55599       -1.63144        0.60624
H          1.07303        3.66377        4.18196
H          3.35300        2.27641        4.24913
H         -0.25677        2.86444        2.00089
H          1.17438        1.52372       -0.34939
H          0.12207        0.42508        0.56715
C          0.41614       -2.08398       -0.34118
C          2.69588       -2.56504        0.46120
C          1.12076       -1.75387        2.09010
H          0.71336       -1.96568       -1.40340
H          0.16168       -3.15826       -0.17432
H         -0.52148       -1.51577       -0.17329
H          3.54707       -2.30965        1.12016
H          2.36298       -3.60996        0.65418
H          2.98517       -2.38727       -0.57073
H          1.96555       -1.50583        2.76873
H          0.25467       -1.11597        2.33524
H          0.82960       -2.80967        2.30846
Mg         1.90131       -5.62789       -0.74189
C          6.11875       -1.34030       -2.20320
C          7.05835       -2.33278       -2.39329
C          6.46617       -3.50722       -2.05024
C          5.18175       -3.20570       -1.66072
N          4.94519       -1.83874       -1.72554
C          4.28696       -4.36213       -1.23956
N          2.91988       -4.33554       -1.79669
C          2.69357       -4.72100       -3.19820
H          8.07031       -2.23041       -2.75539
H          6.28612       -0.29592       -2.41507
H          6.91033       -4.49632       -2.07438
H          4.76312       -5.34687       -1.39930
H          4.24142       -4.34710       -0.13979
C          3.11905       -6.17300       -3.42743
C          1.18195       -4.56984       -3.47307
C          3.42524       -3.78925       -4.16469
H          2.57280       -6.84030       -2.72273
H          2.89753       -6.47987       -4.46967
H          4.20600       -6.29546       -3.26907
H          0.85796       -3.51617       -3.31193
H          0.94435       -4.83593       -4.52622
H          0.58493       -5.21383       -2.79714
H          3.04854       -2.77855       -3.97569
H          4.52311       -3.80856       -4.04221
H          3.20422       -4.05438       -5.21974
