110
speciation2445.ct
Na         0.92506        0.05868       -0.03067
Mg         4.25396        0.77466        1.60343
C         -1.82454        0.91908        1.01722
C         -1.84195       -1.28446        0.10355
O         -1.39494        0.05868       -0.03067
C         -1.52346        0.43153        2.44245
C         -3.34806       -1.43945       -0.13224
H         -1.28065        1.87738        0.88033
H         -2.90124        1.16655        0.90380
H         -1.33189       -1.88520       -0.67797
H         -1.53977       -1.74018        1.06775
H         -3.61875       -1.07650       -1.14585
H         -3.62264       -2.51354       -0.05556
H         -3.93889       -0.88564        0.62623
H         -0.44651        0.18261        2.54589
H         -1.77994        1.23228        3.16725
H         -2.14348       -0.44924        2.71001
H          2.23363        2.51698        1.85502
C          3.43877        3.27850        3.48170
C          2.92010        2.11566        2.63275
C          4.21631        4.29458        2.64194
H          2.56910        3.79443        3.95158
H          4.08563        2.87508        4.28876
H          5.07830        3.78967        2.15770
H          3.55409        4.71556        1.85281
C          4.73287        5.44204        3.51077
H          2.31592        1.45419        3.28991
H          3.88773        5.98397        3.98825
H          5.40617        5.05215        4.30373
H          5.30243        6.16013        2.88385
C          4.99842       -3.76255       -1.63574
C          6.00085       -3.15612       -0.93056
C          5.37856       -2.25691       -0.13250
C          4.02873       -2.33984       -0.38679
N          3.75873       -3.34202       -1.26878
C          3.02775       -1.40077        0.18251
N          3.29506        0.05868       -0.03067
C          3.68749        0.54674       -1.39737
H          7.06972       -3.31537       -1.02778
H          5.20553       -4.46073       -2.40477
H          5.86880       -1.56428        0.48663
H          2.95123       -1.57044        1.27863
H          2.06521       -1.68959       -0.27382
C          2.44928        0.43914       -2.30078
C          4.19854        1.98394       -1.22488
C          4.85870       -0.17036       -2.14948
H          2.11289        1.35512       -2.82135
H          1.55658        0.47682       -1.74940
H          2.34228       -0.59455       -2.66962
H          5.12081        1.95736       -0.59522
H          4.49278        2.42479       -2.20514
H          3.45933        2.63650       -0.72984
H          5.81460       -0.15528       -1.58190
H          4.61873       -1.19924       -2.47533
H          5.06372        0.33311       -3.11852
Na        -1.37786       -5.04257       -2.00041
Mg         2.25985       -4.41353       -2.34339
C          1.61705       -4.18584       -5.49092
C          0.89368       -2.32462       -4.19439
O          1.66164       -3.54231       -4.21251
C          2.48924       -3.44755       -6.52662
C         -0.31886       -2.08532       -5.17045
H          1.98248       -5.22219       -5.40043
H          0.57860       -4.30087       -5.88468
H          0.47189       -2.23791       -3.16504
H          1.59443       -1.49184       -4.38398
H         -1.07582       -2.86471       -5.09539
H         -0.76571       -1.10886       -4.94259
H          0.03126       -2.01435       -6.24031
H          3.54010       -3.41508       -6.18240
H          2.44459       -3.96468       -7.51010
H          2.15485       -2.40138       -6.69864
H          6.67268       -0.53939        1.97040
C          6.69752        0.46040        3.76569
C          6.30342        0.43948        2.29705
C          5.95744       -0.61869        4.56431
H          7.79361        0.25904        3.82766
H          6.49268        1.46387        4.18618
H          4.86469       -0.42661        4.51739
H          6.15953       -1.62893        4.13933
C          6.41425       -0.60612        6.02037
H          6.90336        1.19073        1.74564
H          7.49802       -0.84647        6.08622
H          6.23749        0.39578        6.46511
H          5.84761       -1.36288        6.60181
C          4.42238       -6.76469       -2.30976
C          4.27466       -8.04822       -2.79889
C          2.94981       -8.18403       -3.15670
C          2.35859       -6.97637       -2.81085
N          3.26296       -6.09665       -2.45322
C          0.88124       -6.65506       -2.66941
N          0.68158       -5.53769       -1.67485
C          0.69214       -5.85685       -0.20012
H          5.05584       -8.78624       -2.84561
H          5.35247       -6.40528       -1.90937
H          2.48831       -9.07115       -3.53039
H          0.33293       -7.56260       -2.36481
H          0.49384       -6.35080       -3.66158
C          2.09984       -6.16615        0.34173
C          0.16563       -4.59954        0.51616
C         -0.24039       -7.03128        0.23040
H          2.79999       -5.34391        0.11010
H          2.06829       -6.27014        1.45116
H          2.48503       -7.12585       -0.05802
H         -0.88597       -4.39533        0.21544
H          0.17464       -4.72002        1.62165
H          0.78048       -3.71740        0.24956
H         -1.30276       -6.85373       -0.03819
H          0.08477       -8.01244       -0.17228
H         -0.21293       -7.14255        1.34341
