83
speciation714.ct
Na        -2.18281        0.60703       -1.87615
Li        -2.18187        2.06958        4.68192
C          0.24834        2.77959        5.86263
C         -1.41270        3.20620        7.46434
O         -1.09250        2.54001        6.24337
C          1.23870        2.01008        6.74472
C         -2.89262        3.10178        7.80100
H          0.35715        2.39751        4.82663
H          0.49109        3.86977        5.82717
H         -0.89036        2.70927        8.31462
H         -1.13889        4.28520        7.44063
H         -3.19218        2.03659        7.88349
H         -3.08180        3.59564        8.78453
H         -3.49520        3.61112        7.02569
H          0.94436        0.94174        6.79463
H          2.25984        2.08742        6.31961
H          1.26916        2.42606        7.77726
C         -2.75213        4.39149        2.87972
C         -3.04312        4.80423        1.59270
C         -3.07921        3.67242        0.81474
C         -2.80195        2.61350        1.65485
N         -2.60877        3.05538        2.93651
C         -2.70089        1.17633        1.20429
N         -1.66435        0.93503        0.17331
C         -0.23614        1.21235        0.40945
H         -3.19811        5.82004        1.25333
H         -2.64591        5.04630        3.73106
H         -3.27635        3.62608       -0.25239
H         -3.68438        0.86168        0.78826
H         -2.50155        0.52972        2.07637
C          0.26104        0.37693        1.59723
C          0.52806        0.78561       -0.85698
C          0.04875        2.71087        0.63263
H          0.08143       -0.70282        1.39675
H          1.34709        0.53437        1.75743
H         -0.27229        0.65377        2.52968
H          0.18579        1.37241       -1.73873
H          1.61873        0.96054       -0.73987
H          0.36228       -0.29083       -1.06992
H         -0.35494        3.31482       -0.20979
H         -0.36798        3.07979        1.58477
H          1.14144        2.88918        0.70152
Na        -2.14714        0.79286       -1.90613
C         -4.27708        0.33575        4.34059
C         -2.57313       -0.42957        5.83372
O         -2.89264        0.31645        4.67039
C         -5.22620        0.73894        5.47380
C         -2.73623       -1.93616        5.61368
H         -4.40625        1.08946        3.53950
H         -4.58351       -0.63036        3.88585
H         -1.50199       -0.25156        6.06409
H         -3.13437       -0.09026        6.72577
H         -2.08873       -2.27308        4.77664
H         -2.44295       -2.48094        6.53578
H         -3.79026       -2.19730        5.38635
H         -4.90438        1.70350        5.91638
H         -6.25233        0.85462        5.06604
H         -5.27499       -0.04512        6.25726
C          1.48223       -0.30698       -4.43119
C          0.96826       -1.33024       -3.67027
C         -0.40997       -1.29610       -3.80233
C         -0.72190       -0.28610       -4.61570
N          0.43658        0.38936       -5.06013
C         -2.10837        0.09181       -5.03977
N         -2.90326        0.51812       -3.87956
C         -4.33005        0.83192       -4.01984
H          1.54432       -2.02635       -3.07499
H          2.53242       -0.05995       -4.53468
H         -1.11515       -1.97355       -3.33755
H         -2.56857       -0.78841       -5.53596
H         -2.03952        0.92184       -5.77215
C         -5.11475       -0.39355       -4.52527
C         -4.84796        1.20715       -2.62064
C         -4.53492        2.02906       -4.96579
H         -4.94436       -1.26262       -3.85316
H         -6.20377       -0.17339       -4.54672
H         -4.81079       -0.67444       -5.55406
H         -4.28162        2.07646       -2.21959
H         -5.92536        1.47265       -2.64567
H         -4.71049        0.35691       -1.91650
H         -3.99864        2.92286       -4.57946
H         -4.15870        1.80489       -5.98493
H         -5.61546        2.27548       -5.04956
