83
speciation573.ct
Na         0.90890       -0.10196        0.07405
Mg         0.78660       -2.27548       -2.43558
C          0.13533       -0.07513        2.97087
C         -1.86445        0.32689        1.77279
O         -0.43098        0.46895        1.78102
C         -0.22685       -1.54731        3.21672
C         -2.56621        1.13899        2.89210
H          1.23376       -0.00093        2.87416
H         -0.08452        0.54813        3.86332
H         -2.28133        0.66659        0.80291
H         -2.18180       -0.73226        1.83021
H         -2.50001        2.22576        2.68258
H         -3.63448        0.84410        2.97379
H         -2.15048        0.95907        3.90301
H          0.02333       -2.12254        2.30219
H          0.32785       -1.93373        4.09253
H         -1.30144       -1.69225        3.46230
C         -0.65702       -4.92778       -2.65595
C         -1.95626       -5.20152       -2.26798
C         -2.48076       -4.02454       -1.76154
C         -1.47156       -3.08618       -1.86371
N         -0.37851       -3.64102       -2.40462
C         -1.52710       -1.62053       -1.44627
N         -0.25134       -0.87872       -1.73811
C         -0.32850        0.09699       -2.85234
H         -2.46113       -6.15461       -2.34527
H          0.04614       -5.62245       -3.09081
H         -3.48013       -3.87668       -1.36952
H         -1.73275       -1.56932       -0.36080
H         -2.40812       -1.19037       -1.95773
C         -1.35929        1.19671       -2.53737
C          1.05689        0.74565       -2.97734
C         -0.66558       -0.57456       -4.21254
H         -1.12128        1.63461       -1.54763
H         -1.34605        1.98543       -3.31775
H         -2.40000        0.81863       -2.51016
H          1.82427       -0.01901       -3.22642
H          1.06176        1.52157       -3.77358
H          1.33988        1.22678       -2.01783
H          0.08499       -1.35165       -4.47680
H         -1.67075       -1.04475       -4.22032
H         -0.65356        0.18541       -5.02744
Na         4.12599        0.50105       -2.22334
C          5.41499       -0.24477       -4.84990
C          5.73037        2.03795       -4.27713
O          4.83804        0.92577       -4.25854
C          6.73806       -0.71812       -4.22139
C          6.10963        2.57116       -5.68129
H          4.68133       -1.06721       -4.73369
H          5.53904       -0.14186       -5.95316
H          5.24029        2.87603       -3.74231
H          6.64905        1.80242       -3.71240
H          5.25034        3.04582       -6.20268
H          6.89669        3.34906       -5.56170
H          6.54522        1.79117       -6.33813
H          6.63829       -0.77168       -3.11920
H          6.99817       -1.72826       -4.60637
H          7.58898       -0.05286       -4.48892
C          2.49000        4.37259        1.24799
C          2.89965        4.44335       -0.06383
C          3.49360        3.22848       -0.38472
C          3.41905        2.42975        0.68117
N          2.81422        3.10904        1.76860
C          3.95666        1.01846        0.79630
N          3.32936       -0.01146       -0.11052
C          3.84977       -1.40755        0.19569
H          2.76268        5.29822       -0.71377
H          1.98179        5.16023        1.79447
H          3.94370        2.97483       -1.33226
H          3.80483        0.76684        1.86069
H          5.04698        1.09270        0.62101
C          3.60559       -1.82090        1.67098
C          3.10245       -2.45013       -0.67340
C          5.38185       -1.58058       -0.08680
H          2.52736       -1.80865        1.92163
H          3.97627       -2.85791        1.84429
H          4.17943       -1.20327        2.38450
H          3.24263       -2.25054       -1.75728
H          3.49024       -3.47772       -0.47722
H          2.01415       -2.45973       -0.45510
H          5.58870       -1.94318       -1.11491
H          5.99206       -0.68200        0.09246
H          5.82506       -2.35819        0.57924
