110
speciation1881.ct
Na        -2.11001        1.68077       -2.54283
Mg         1.62846       -3.49593       -3.55080
C         -4.40293        0.04028       -1.65190
C         -2.44486       -0.66380       -0.47448
O         -2.98538       -0.05817       -1.64779
C         -5.02032        0.65529       -0.38856
C         -2.75947       -2.16595       -0.37968
H         -4.66528        0.70361       -2.50016
H         -4.86936       -0.94165       -1.88535
H         -1.34247       -0.57225       -0.49832
H         -2.75791       -0.13989        0.44932
H         -2.28946       -2.71440       -1.21871
H         -2.35784       -2.57352        0.57325
H         -3.85107       -2.36375       -0.38961
H         -4.50649        1.60307       -0.14201
H         -6.09728        0.85856       -0.55697
H         -4.94961       -0.03986        0.47490
H         -1.16223       -4.01801       -2.71910
C         -1.10453       -5.98248       -3.61354
C         -0.60812       -4.47264       -3.56145
C         -0.95977       -6.79563       -2.29374
H         -2.19563       -6.00080       -3.85631
H         -0.58371       -6.51440       -4.43741
H          0.08838       -6.78147       -1.97022
H         -1.58258       -6.33523       -1.49555
C         -1.36844       -8.28545       -2.40046
H         -0.98482       -4.00559       -4.49721
H         -2.45197       -8.42169       -2.60997
H         -0.78331       -8.81414       -3.18327
H         -1.15634       -8.79999       -1.43355
C          3.60032       -1.17566       -3.72777
C          3.91179        0.16324       -3.59313
C          2.76669        0.78185       -3.16332
C          1.81136       -0.21250       -3.07185
N          2.30399       -1.43347       -3.44490
C          0.40658        0.09338       -2.68038
N         -0.18901        1.17835       -3.49563
C         -0.49005        0.89904       -4.92689
H          4.86665        0.64240       -3.77919
H          4.31620       -1.90301       -4.04250
H          2.67126        1.83527       -2.95595
H          0.44762        0.46313       -1.63128
H         -0.21878       -0.82001       -2.69479
C         -1.47328       -0.27638       -5.03624
C         -1.11632        2.18763       -5.48964
C          0.74926        0.60754       -5.80262
H         -2.31742       -0.14387       -4.33071
H         -1.87480       -0.35975       -6.06955
H         -0.95935       -1.23167       -4.79862
H         -0.40893        3.03721       -5.36143
H         -1.33328        2.09198       -6.57506
H         -2.05815        2.43959       -4.96068
H          1.46805        1.45598       -5.80715
H          1.27512       -0.31791       -5.52066
H          0.43406        0.43006       -6.85479
Na         3.87332       -0.57781        1.24481
Mg         0.88758        2.80931       -3.39942
C         -2.54756        4.67119       -1.82290
C         -4.15934        3.79662       -3.35520
O         -2.84222        3.70148       -2.82585
C         -3.52714        4.70066       -0.64317
C         -4.42679        5.10454       -4.12225
H         -1.54147        4.43377       -1.42263
H         -2.44575        5.68800       -2.26623
H         -4.28503        2.97362       -4.08677
H         -4.92659        3.63188       -2.57295
H         -3.72145        5.21613       -4.97269
H         -5.46287        5.08825       -4.52498
H         -4.34898        5.99637       -3.46590
H         -3.63286        3.68502       -0.22144
H         -3.14478        5.37853        0.14853
H         -4.52177        5.08867       -0.95010
H          2.10587       -5.12701       -5.62152
C          3.68485       -3.71632       -6.10372
C          2.29800       -4.04036       -5.52511
C          4.81712       -4.38496       -5.31942
H          3.72110       -4.06069       -7.16179
H          3.82969       -2.61490       -6.11981
H          4.79210       -4.04743       -4.26394
H          4.68503       -5.48690       -5.33620
C          6.18229       -4.03770       -5.91867
H          1.56355       -3.49353       -6.15729
H          6.26321       -4.42506       -6.95734
H          6.33871       -2.93700       -5.93271
H          6.98682       -4.49792       -5.30723
C          2.50689       -5.84561       -2.11459
C          3.04024       -6.38815       -0.96930
C          3.39779       -5.33227       -0.17204
C          3.08843       -4.18413       -0.87157
N          2.51108       -4.50012       -2.05888
C          3.31528       -2.76978       -0.39896
N          4.17928       -2.65380        0.80214
C          5.66195       -2.72950        0.65134
H          3.14388       -7.43703       -0.72820
H          2.11000       -6.40948       -2.94525
H          3.81839       -5.40748        0.82028
H          3.70568       -2.14577       -1.21241
H          2.31538       -2.35138       -0.15328
C          6.18920       -1.77713       -0.44373
C          6.27317       -2.30773        2.00208
C          6.17302       -4.15383        0.34949
H          5.87323       -0.73245       -0.24493
H          7.30028       -1.80639       -0.47695
H          5.84037       -2.08216       -1.45119
H          5.91590       -2.97818        2.81448
H          7.38425       -2.36255        1.97568
H          5.98520       -1.26792        2.26268
H          5.89672       -4.85828        1.16148
H          5.80684       -4.52003       -0.62937
H          7.28339       -4.16242        0.29315
