96
speciation1767.ct
Na         1.49840        1.29782        1.00814
Li         2.42661       -3.16332        1.29565
C          0.68368       -5.32462        1.40881
C          2.73166       -6.00368        0.42230
O          1.80983       -4.92996        0.63409
C          1.00647       -5.93059        2.76931
C          2.11305       -7.25086       -0.26493
H          0.11858       -4.43336        1.67337
H         -0.01647       -5.94295        0.80656
H          3.54437       -5.65370       -0.24862
H          3.20462       -6.30842        1.37423
H          1.77893       -7.01989       -1.29829
H          2.86799       -8.06500       -0.31588
H          1.25495       -7.67340        0.29825
H          1.64503       -5.22497        3.33916
H          0.05423       -6.08248        3.31970
H          1.50483       -6.91401        2.67609
H          1.78444       -1.02224        3.15236
C          1.17515        0.92378        3.86184
C          2.02457        0.02506        2.96584
C         -0.20963        0.29413        3.94213
H          1.57875        0.96141        4.89986
H          1.17643        1.95983        3.45385
H         -0.57769        0.06737        2.94438
H         -0.12446       -0.67448        4.48226
C         -1.22944        1.17844        4.61841
H          3.07992        0.09734        3.26831
H         -0.91020        1.41088        5.65337
H         -1.35689        2.11361        4.03252
H         -2.19537        0.63061        4.63615
C          4.53284        2.13766        2.90688
C          5.52351        3.04225        2.52934
C          5.09374        3.61453        1.37281
C          3.88135        3.01655        1.10051
N          3.52275        2.10233        1.98538
C          2.95086        3.21730        0.00028
N          2.85259        1.91214       -0.66390
C          3.53818        1.97365       -2.07591
H          6.45519        3.23125        3.03964
H          4.59130        1.52800        3.80100
H          5.61376        4.32954        0.76048
H          3.29476        4.06435       -0.60257
H          1.95148        3.49227        0.41894
C          5.03262        2.36648       -1.91166
C          3.69076        0.68968       -3.03160
C          2.78399        2.99614       -2.96535
H          5.60969        1.52226       -1.46369
H          5.48307        2.58512       -2.90555
H          5.20940        3.25700       -1.30441
H          2.84563        0.26022       -3.57733
H          4.28412        0.98027       -3.92276
H          4.28539       -0.15006       -2.69218
H          1.72811        2.67888       -3.09149
H          2.77762        4.02693       -2.58334
H          3.25206        3.05740       -3.97273
Li         1.91689        0.34605        0.70566
C          5.13382       -3.01737        2.39312
C          3.50574       -2.91500        4.12842
O          3.78071       -2.72513        2.73200
C          5.60297       -4.41479        2.80355
C          4.42217       -2.09571        5.07450
H          5.24311       -2.96607        1.29709
H          5.81456       -2.22697        2.78091
H          2.47340       -2.59126        4.34857
H          3.53167       -3.98726        4.40277
H          4.38247       -1.01017        4.84898
H          4.10402       -2.24039        6.12901
H          5.48114       -2.42359        5.01856
H          4.92085       -5.17220        2.37672
H          6.62955       -4.58607        2.42057
H          5.63990       -4.53089        3.90576
C         -1.87833        1.03629        0.71745
C         -2.91740        0.20605        0.35919
C         -2.36565       -1.00653        0.05805
C         -1.00835       -0.85934        0.27363
N         -0.70191        0.39177        0.67897
C         -0.05376       -1.98599        0.03954
N          1.35523       -1.62518        0.34911
C          2.08641       -1.19347       -0.84375
H         -3.97568        0.46293        0.26851
H         -1.97736        2.06050        0.99234
H         -2.88548       -1.89453       -0.29275
H         -0.38211       -2.82220        0.63981
H         -0.20196       -2.34543       -0.99781
C          1.16310       -0.07217       -1.55444
C          3.51110       -0.84378       -0.21362
C          2.33402       -2.33111       -1.86187
H          0.85902        0.73862       -0.90628
H          1.37067        0.52391       -2.40823
H          0.22505       -0.49608       -1.95466
H          3.89876       -1.78408        0.19213
H          4.34005       -0.45792       -0.78714
H          3.58515       -0.19569        0.67461
H          2.94301       -3.13959       -1.40773
H          1.41186       -2.78672       -2.26025
H          2.88091       -1.95476       -2.74745
