96
speciation1151.ct
Na         1.05189        1.47548        0.25573
Mg         3.66038        0.92416       -2.69579
C          1.63236        4.73338        0.49494
C         -0.59465        4.18178        0.17484
O          0.75122        3.73539        0.00856
C          1.62004        4.83377        2.02103
C         -1.41571        3.76992       -1.01944
H          2.65135        4.51847        0.12613
H          1.37895        5.73087        0.05548
H         -0.94814        3.75973        1.12877
H         -0.74728        5.28397        0.22968
H         -1.17734        2.75938       -1.13316
H         -2.51335        3.81548       -0.90144
H         -1.12639        4.29185       -1.94678
H          1.93756        3.86836        2.46133
H          2.31622        5.63815        2.33769
H          0.60880        5.09523        2.40197
H          5.14973       -1.32809       -3.25487
C          4.12070       -1.44192       -5.13205
C          4.11339       -1.13647       -3.61178
C          4.50587       -2.92325       -5.39870
H          3.11512       -1.24484       -5.56132
H          4.85624       -0.77258       -5.62776
H          5.43961       -3.17892       -4.85321
H          3.68983       -3.57262       -5.01375
C          4.77106       -3.26341       -6.87418
H          3.46817       -1.89285       -3.12809
H          3.93631       -2.98252       -7.55066
H          5.70095       -2.76260       -7.21799
H          4.93031       -4.36173       -6.96742
C          1.57153        2.36308       -3.85766
C          0.37917        2.88226       -4.28728
C         -0.56464        2.22903       -3.54378
C          0.06793        1.34927       -2.65378
N          1.46978        1.41271       -2.90984
C         -0.97168        0.47999       -1.71553
N         -0.95953        0.71039       -0.21433
C         -2.15498        0.72320        0.81654
H          0.23584        3.62858       -5.03722
H          2.52248        2.67962       -4.27510
H         -1.62591        2.41885       -3.64879
H         -0.86503       -0.60111       -1.94084
H         -2.00289        0.73518       -2.05326
C         -3.03250       -0.54991        0.77143
C         -1.64844        0.89643        2.28245
C         -3.18652        1.90187        0.74844
H         -2.42821       -1.46170        0.91510
H         -3.80493       -0.53949        1.58880
H         -3.59954       -0.60266       -0.17767
H         -0.87600        1.69362        2.34663
H         -2.42187        1.20644        3.01576
H         -1.41488       -0.05686        2.76127
H         -2.78843        2.87898        1.04540
H         -3.78434        1.95511       -0.17403
H         -3.94620        1.77716        1.56504
Mg         0.64013       -0.24325       -0.07072
C          6.43587        1.44215       -3.77594
C          5.24986        3.45382       -3.39628
O          5.12541        2.05765       -3.70683
C          7.38723        1.56515       -2.56250
C          5.95411        4.30490       -4.46268
H          6.31854        0.36810       -3.97924
H          6.97608        1.80399       -4.68007
H          4.24244        3.87294       -3.21404
H          5.84785        3.63986       -2.50420
H          5.42105        4.26489       -5.42868
H          5.99131        5.35942       -4.10482
H          7.01566        4.00102       -4.59798
H          6.97578        1.08886       -1.65772
H          8.33446        1.02319       -2.77761
H          7.70634        2.60753       -2.34010
C          5.09679        2.10487       -0.32613
C          5.67488        1.71220        0.84485
C          5.28730        0.42510        1.04402
C          4.42997        0.11046        0.00262
N          4.42854        1.08232       -0.90128
C          3.49999       -1.03048       -0.10528
N          2.29682       -0.64280        0.66043
C          2.15684       -1.11757        2.03815
H          6.30653        2.30290        1.48952
H          5.22223        3.07784       -0.72238
H          5.59369       -0.14797        1.89145
H          3.97082       -1.98417        0.19938
H          3.17277       -1.13123       -1.14998
C          3.18286       -0.48185        2.95981
C          0.83909       -0.62634        2.47589
C          2.14076       -2.65574        2.16628
H          3.26925        0.60953        2.72761
H          2.90150       -0.58110        4.02413
H          4.11262       -1.04565        2.85674
H          0.08671       -1.08031        1.79110
H          0.61354       -0.90639        3.52563
H          0.86236        0.47733        2.38523
H          1.27691       -3.09323        1.61835
H          3.06686       -3.12430        1.78911
H          2.04637       -2.92594        3.23941
