95
speciation1542.ct
Na         3.91111       -0.72538        2.02932
Mg         2.04973        4.53583       -1.05371
C          3.25696        7.19653       -1.09416
C          4.33296        5.52749       -2.38718
O          3.52191        5.80488       -1.26960
C          2.71345        7.93830       -2.32097
C          5.70899        6.17241       -2.29323
H          2.51630        7.29143       -0.27767
H          4.16609        7.71477       -0.71423
H          4.51034        4.43831       -2.40861
H          3.83186        5.78714       -3.34167
H          6.29498        5.80734       -1.42254
H          6.18663        5.86007       -3.20410
H          5.68884        7.28202       -2.30239
H          1.80346        7.46536       -2.68489
H          2.45568        8.97791       -2.04046
H          3.44337        7.97587       -3.15420
H          0.41712        5.98656       -2.66113
C         -0.62623        4.25867       -3.15232
C          0.70558        4.93874       -2.79718
C         -1.52422        4.26413       -1.92997
H         -1.07958        4.80486       -4.00481
H         -0.56002        3.21527       -3.51174
H         -1.06342        3.62282       -1.15070
H         -1.62550        5.29628       -1.53318
C         -2.89709        3.72439       -2.28741
H          1.38200        4.85418       -3.67919
H         -3.38335        4.41530       -3.00815
H         -2.81182        2.71564       -2.74684
H         -3.51243        3.65531       -1.36897
C          5.87678       -0.66565       -0.21860
C          6.43625       -0.02774       -1.29523
C          5.82851        1.20291       -1.37006
C          4.89351        1.27434       -0.36088
N          4.95714        0.12625        0.36898
C          3.92139        2.45201       -0.13322
N          2.87799        2.64411       -1.19895
C          1.94172        1.46168       -1.29363
H          7.19574       -0.41959       -1.96024
H          6.11767       -1.66995        0.11151
H          6.04241        1.95049       -2.09242
H          3.44489        2.36304        0.86035
H          4.55895        3.35628       -0.10270
C          0.98399        1.47296       -0.09303
C          1.29580        1.58228       -2.65607
C          2.52401        0.01277       -1.35113
H          0.49880        2.43835        0.00366
H          0.21546        0.67675       -0.15360
H          1.55629        1.27306        0.84329
H          2.00378        1.25429       -3.42947
H          0.36375        0.99203       -2.77392
H          1.23263        2.61534       -2.90456
H          3.32747       -0.09272       -2.11415
H          2.83873       -0.37692       -0.37349
H          1.72100       -0.70511       -1.64071
Na         4.18799        2.25252       -3.13479
Mg         7.20835        1.65429       -6.22638
H          0.64209        5.89297        1.00178
C          1.60459        4.55688        2.41625
C          0.99968        4.84287        1.00802
C          2.73855        5.50629        2.82795
H          0.80341        4.68524        3.18067
H          1.94756        3.50135        2.47934
H          2.35943        6.55097        2.80987
H          3.08506        5.27791        3.86038
C          3.92137        5.37831        1.90144
H          0.08023        4.22864        0.97483
H          4.36073        4.36509        1.95550
H          3.54160        5.53853        0.90660
H          4.69234        6.14485        2.11286
C          9.05634        4.19493       -6.69244
C          9.00020        5.35766       -5.95640
C          7.99108        5.16073       -5.05620
C          7.48931        3.88169       -5.30900
N          8.11881        3.30074       -6.26814
C          6.45282        2.96112       -4.51146
N          5.49799        1.86093       -5.07063
C          4.62212        1.95729       -6.26148
H          9.62736        6.24246       -5.99027
H          9.80031        4.04561       -7.45465
H          7.81177        5.89889       -4.30704
H          7.23280        2.29506       -4.07758
H          6.06892        3.46678       -3.61406
C          5.40419        1.65368       -7.56368
C          3.57620        0.83081       -6.14518
C          3.92423        3.31161       -6.36063
H          5.92331        0.66888       -7.48467
H          4.71495        1.57859       -8.43304
H          6.14699        2.43933       -7.79777
H          2.95544        0.96411       -5.25383
H          2.90004        0.80452       -7.02758
H          4.07190       -0.16345       -6.06294
H          3.31930        3.49810       -5.44968
H          4.67379        4.11924       -6.48152
H          3.24935        3.32133       -7.24631
