80
speciation858.ct
Na         3.14152        0.05037        2.78864
Mg         2.10712        4.55172       -1.31004
H          3.67423        6.76363       -1.51315
C          4.99611        5.41460       -2.54883
C          3.94009        5.68972       -1.47014
C          4.46831        5.69200       -3.95570
H          5.87426        6.07436       -2.35742
H          5.33584        4.35888       -2.47222
H          3.60879        5.02142       -4.16042
H          4.13265        6.74918       -4.02830
C          5.55255        5.45307       -5.00926
H          4.42739        5.49113       -0.49112
H          6.41271        6.13936       -4.84883
H          5.91561        4.40423       -4.96584
H          5.13738        5.64301       -6.02144
C          5.14575       -1.06611        0.72354
C          5.80374       -0.82809       -0.46426
C          5.40869        0.42789       -0.90014
C          4.51838        0.89618        0.04172
N          4.36249       -0.01500        1.03452
C          3.76981        2.21783        0.01545
N          2.88162        2.45278       -1.16133
C          1.78939        1.45304       -1.34869
H          6.49183       -1.50221       -0.95526
H          5.22071       -1.95896        1.32672
H          5.73327        0.92249       -1.80099
H          3.18742        2.23967        0.94298
H          4.53097        3.02388        0.05024
C          0.80869        1.48330       -0.16063
C          1.06570        1.87768       -2.60082
C          2.25379        0.00315       -1.63123
H          0.47115        2.52760        0.01784
H         -0.08039        0.85155       -0.36696
H          1.28428        1.10124        0.76469
H          1.75142        1.93323       -3.47664
H          0.19233        1.23726       -2.84062
H          0.70437        2.84919       -2.33626
H          3.00543       -0.02308       -2.45230
H          2.64446       -0.51371       -0.74046
H          1.38761       -0.62030       -1.94697
Na        -0.46621        2.54991        2.17867
Mg         4.01826        2.25393       -2.73608
H          1.12623        4.56679       -4.12081
C         -0.12468        6.29840       -3.80829
C          0.55478        5.00062       -3.27514
C         -1.10041        6.09243       -4.97680
H         -0.78592        6.72496       -3.04444
H          0.65064        7.04386       -4.07794
H         -0.55644        5.73761       -5.87613
H         -1.87670        5.33976       -4.70613
C         -1.82703        7.41208       -5.28338
H         -0.34062        4.37260       -3.08194
H         -2.42254        7.74077       -4.40091
H         -1.09430        8.20989       -5.52575
H         -2.52624        7.28956       -6.13680
C         -0.02028        4.41368        4.58573
C          0.70752        5.47503        5.08771
C          1.60823        5.83319        4.10427
C          1.38010        4.98200        3.03617
N          0.39326        4.11249        3.33938
C          2.11309        5.01401        1.72103
N          1.22650        5.23132        0.55447
C          0.57030        6.58154        0.55360
H          0.58661        5.93549        6.05447
H         -0.81535        3.89394        5.10084
H          2.32455        6.64102        4.15791
H          2.59342        4.04881        1.62710
H          2.93746        5.75498        1.73379
C          1.54713        7.77053        0.76403
C         -0.02489        6.76293       -0.79964
C         -0.61990        6.66702        1.54083
H          2.03303        7.75921        1.75691
H          0.99983        8.73469        0.68545
H          2.33409        7.77991       -0.01873
H         -0.73274        5.92648       -1.00325
H         -0.57026        7.72891       -0.89633
H          0.82066        6.77552       -1.51207
H         -1.31019        5.80812        1.38659
H         -0.32263        6.70963        2.59645
H         -1.19688        7.60388        1.37722
