95
speciation1238.ct
Na         2.86578       -1.07149       -0.96630
Mg         4.87302        3.48939       -6.01258
C         -0.20983       -1.21325        0.76697
C          0.01466       -2.67435       -1.01498
O          0.75299       -1.90213       -0.08678
C         -1.00135       -2.12869        1.75058
C          0.98042       -3.34069       -1.95002
H          0.32484       -0.48046        1.39619
H         -0.95437       -0.64092        0.16613
H         -0.54393       -3.50088       -0.51452
H         -0.69178       -2.04642       -1.60594
H          1.65736       -3.98935       -1.35573
H          0.41558       -3.95596       -2.68181
H          1.55923       -2.55639       -2.47537
H         -0.32323       -2.68724        2.42574
H         -1.68004       -1.51490        2.38825
H         -1.66961       -2.85356        1.23752
H          3.51520        5.00840       -4.38121
C          3.25004        6.20324       -6.16602
C          4.11358        5.31200       -5.26869
C          1.99559        5.47992       -6.67156
H          2.93839        7.09805       -5.58033
H          3.86065        6.53933       -7.02983
H          2.29702        4.58756       -7.25989
H          1.37100        5.15104       -5.81148
C          1.15292        6.39800       -7.55986
H          4.98426        5.89700       -4.90816
H          0.79869        7.28097       -6.98482
H          1.74798        6.74876       -8.43002
H          0.26585        5.84662       -7.93815
C          6.09180       -0.96453       -1.19932
C          7.39222       -0.61812       -1.27638
C          7.43464        0.48519       -2.03969
C          6.14458        0.76125       -2.47335
N          5.23039       -0.11099       -1.80631
C          6.17309        1.92933       -3.53225
N          5.06670        2.17905       -4.45940
C          4.57717        0.95115       -5.22245
H          8.24555       -1.10416       -0.80538
H          5.77400       -1.86641       -0.66846
H          8.32891        1.03450       -2.30377
H          7.05003        1.74093       -4.18416
H          6.41649        2.87932       -3.00337
C          3.93849       -0.15582       -4.36947
C          3.43775        1.37722       -6.17482
C          5.70513        0.26334       -6.02862
H          3.19237        0.28997       -3.71493
H          3.41262       -0.90866       -4.99677
H          4.67681       -0.78668       -3.86419
H          3.75136        2.09680       -6.92797
H          3.04500        0.50170       -6.74206
H          2.59489        1.82537       -5.61101
H          6.21456        0.95229       -6.71383
H          6.47409       -0.16493       -5.34968
H          5.29588       -0.59236       -6.61414
Na         2.58494        4.95577       -1.21864
Mg         3.96674        2.50785       -2.83394
H          5.77785        2.23501       -8.35669
C          6.53638        4.18635       -8.76440
C          5.46620        3.28372       -8.17460
C          7.86931        4.03832       -8.03232
H          6.68321        3.91773       -9.83648
H          6.18626        5.23717       -8.71320
H          8.24935        2.99697       -8.13077
H          8.60524        4.72346       -8.50571
C          7.73037        4.39280       -6.55491
H          4.53461        3.42147       -8.76378
H          7.33118        5.42379       -6.44846
H          7.04247        3.68213       -6.05228
H          8.71880        4.32750       -6.05898
C          4.65806       -0.69600        1.14602
C          5.53494        0.05113        1.87096
C          5.26552        1.36615        1.55339
C          4.23298        1.37676        0.61472
N          3.94101        0.09162        0.31969
C          3.63920        2.69861        0.06862
N          2.86679        2.83665       -1.20849
C          1.46932        2.33325       -1.32837
H          6.29402       -0.34120        2.53605
H          4.60133       -1.78145        1.14496
H          5.79049        2.21804        1.95105
H          3.07106        3.15278        0.90355
H          4.51907        3.35717       -0.06733
C          0.52362        2.85565       -0.23010
C          0.93104        2.73872       -2.71326
C          1.43952        0.83954       -1.26900
H          0.43682        3.95793       -0.26108
H         -0.49126        2.41510       -0.37180
H          0.86808        2.53849        0.77698
H          1.60599        2.36617       -3.51364
H         -0.07577        2.29567       -2.89102
H          0.84869        3.83942       -2.80477
H          2.17208        0.49588       -1.99232
H          1.66789        0.52569       -0.23771
H          0.45654        0.40746       -1.54586
