95
speciation1211.ct
Na         0.80398        0.14098       -1.90160
Mg         9.55164        1.94095       -3.41885
C         -2.10381        1.35954       -2.10642
C         -1.76478        0.35494       -0.05732
O         -1.46401        0.29189       -1.43700
C         -1.78166        1.30769       -3.59143
C         -1.05158       -0.76649        0.68198
H         -3.20956        1.25256       -2.01355
H         -1.78086        2.34685       -1.70489
H         -1.45733        1.32833        0.38804
H         -2.85751        0.19431        0.09337
H          0.04788       -0.63020        0.61601
H         -1.35285       -0.75290        1.75180
H         -1.32890       -1.75023        0.24707
H         -2.08577        0.32721       -4.01565
H         -2.33854        2.11226       -4.11845
H         -0.69393        1.45825       -3.75198
H          7.72134        0.11711       -2.86137
C          8.27032       -0.66704       -4.80094
C          8.03707        0.50565       -3.85253
C          9.33160       -1.62965       -4.26868
H          7.31351       -1.22396       -4.90971
H          8.56441       -0.27755       -5.79870
H         10.29733       -1.09941       -4.16849
H          9.02825       -2.01151       -3.26881
C          9.50695       -2.81717       -5.21251
H          7.18283        1.08599       -4.25076
H          8.55820       -3.39124       -5.29156
H          9.80398       -2.46654       -6.22384
H         10.29706       -3.49184       -4.82183
C          3.35141        4.32760       -1.15086
C          2.04358        3.95736       -0.92663
C          2.00839        2.57976       -0.94584
C          3.30619        2.16056       -1.18826
N          4.12678        3.23745       -1.29045
C          3.78896        0.73342       -1.28328
N          3.12085       -0.01319       -2.37621
C          3.49159       -1.44848       -2.47185
H          1.20053        4.61683       -0.76918
H          3.71985        5.34060       -1.20420
H          1.13862        1.97249       -0.78431
H          3.57249        0.27343       -0.30189
H          4.88390        0.75528       -1.44557
C          3.11208       -2.21921       -1.18542
C          2.70509       -2.05541       -3.64394
C          4.99890       -1.62978       -2.75570
H          2.03135       -2.09265       -0.96030
H          3.32152       -3.30437       -1.30578
H          3.70233       -1.88473       -0.30841
H          2.96176       -1.53838       -4.59322
H          2.94321       -3.13613       -3.76042
H          1.61176       -1.95426       -3.47363
H          5.27852       -1.09892       -3.68861
H          5.62788       -1.25083       -1.92493
H          5.24629       -2.70734       -2.87475
Na         6.45510        3.27895       -1.73101
Mg         3.55760        0.89359       -4.04773
H         12.23343        2.05118       -3.45907
C         11.94056        2.45548       -5.52486
C         11.54149        1.70961       -4.25224
C         11.16591        1.94838       -6.74064
H         11.77356        3.54477       -5.38113
H         13.02810        2.28813       -5.70327
H         11.35621        0.85987       -6.87040
H         10.07865        2.10944       -6.58354
C         11.60937        2.67143       -8.01186
H         11.74834        0.62980       -4.38959
H         11.41791        3.76193       -7.92448
H         12.69398        2.50789       -8.19550
H         11.04308        2.27722       -8.88148
C          7.74498        6.27465       -5.70686
C          7.28912        4.98918       -5.88852
C          7.65794        4.25387       -4.77320
C          8.32226        5.05891       -3.94453
N          8.40668        6.36430       -4.47512
C          8.94115        4.72638       -2.61668
N          8.78342        3.32046       -2.17158
C          9.43116        3.06329       -0.84683
H          6.74609        4.63332       -6.75381
H          7.62347        7.09786       -6.39859
H          7.45332        3.21573       -4.61086
H          8.45231        5.40534       -1.88885
H         10.00702        4.99283       -2.72141
C          8.73168        3.83710        0.29467
C          9.31305        1.55952       -0.55323
C         10.93858        3.42643       -0.83313
H          7.65269        3.58609        0.33837
H          9.18970        3.57499        1.27475
H          8.84295        4.93491        0.18577
H          9.82689        0.96972       -1.34246
H          9.78745        1.31114        0.42282
H          8.24782        1.24983       -0.51544
H         11.47981        2.87931       -1.61968
H         11.11938        4.51283       -0.96165
H         11.39862        3.15716        0.14221
