110
speciation1949.ct
Na         1.13227        0.16235        0.20956
Mg        -5.28996       -3.70114       -0.81112
C          3.05291       -1.29555       -1.74515
C          3.13121       -2.24437        0.40728
O          2.73125       -1.13047       -0.37028
C          2.33397       -2.47290       -2.42079
C          2.82944       -1.99707        1.86964
H          2.75990       -0.36030       -2.26437
H          4.15358       -1.39008       -1.89265
H          2.57916       -3.16377        0.11950
H          4.23098       -2.39608        0.32517
H          1.74330       -1.91479        2.01165
H          3.17484       -2.85495        2.48127
H          3.33056       -1.07004        2.21179
H          1.26137       -2.45073       -2.20828
H          2.47494       -2.42692       -3.52003
H          2.71901       -3.44971       -2.06781
H         -8.17080       -3.56903       -0.92261
C         -7.93768       -2.91697       -2.95080
C         -7.47157       -2.88847       -1.46590
C         -9.38678       -2.38941       -3.16624
H         -7.24774       -2.28072       -3.53763
H         -7.88813       -3.95673       -3.33902
H        -10.13159       -3.00898       -2.61647
H         -9.45403       -1.34800       -2.78738
C         -9.78960       -2.36969       -4.65113
H         -7.68838       -1.87133       -1.08592
H         -9.04967       -1.79917       -5.25147
H         -9.87096       -3.39919       -5.06135
H        -10.77973       -1.87453       -4.77515
C         -2.92894       -2.64208       -2.31461
C         -1.83177       -2.06560       -2.77835
C         -1.14660       -1.57389       -1.65668
C         -1.81089       -1.93984       -0.47353
N         -3.02885       -2.64996       -0.97131
C         -0.99464       -1.57928        1.08463
N         -0.17216       -0.44457        1.99386
C         -0.14442        0.58547        3.02818
H         -1.59982       -2.01291       -3.83237
H         -3.69393       -3.12518       -2.94651
H         -0.23289       -1.08235       -1.73753
H         -1.42989       -2.29006        1.76822
H         -0.09923       -2.15338        0.72756
C         -1.06433        0.22591        4.19636
C          1.31039        0.64596        3.54396
C         -0.50160        1.94615        2.42287
H         -0.78066       -0.76178        4.62069
H         -0.96970        0.98892        5.00082
H         -2.11985        0.18875        3.86834
H          2.01103        0.88570        2.71339
H          1.43698        1.41495        4.33448
H          1.61298       -0.33630        3.97091
H          0.19452        2.18608        1.58875
H         -1.53823        1.93993        2.03302
H         -0.40072        2.74626        3.18868
Na        -2.50226       -0.33006        1.57620
Mg        -5.30251        1.31252        0.03993
C         -0.38945        1.88069       -1.88777
C          1.77530        2.74167       -1.60817
O          0.78818        1.86165       -1.09338
C         -0.18454        1.35024       -3.31714
C          2.97349        2.79556       -0.68271
H         -1.13804        1.24443       -1.37590
H         -0.84105        2.89980       -1.91712
H          2.14776        2.40943       -2.60155
H          1.36914        3.77866       -1.67606
H          3.45850        1.79874       -0.64088
H          3.70568        3.53507       -1.07601
H          2.65568        3.10602        0.33337
H          0.33912        0.37534       -3.30653
H         -1.16901        1.23021       -3.81678
H          0.41066        2.05705       -3.93110
H         -6.96322       -5.90683       -1.06235
C         -5.10100       -6.90455       -1.49581
C         -6.01642       -5.69388       -1.62154
C         -5.74716       -8.23012       -1.95966
H         -4.20658       -6.69312       -2.11182
H         -4.80731       -7.01770       -0.43595
H         -6.62028       -8.48276       -1.31587
H         -6.10188       -8.15992       -3.01204
C         -4.72365       -9.36368       -1.86783
H         -6.30598       -5.59132       -2.68972
H         -3.87214       -9.15925       -2.55198
H         -4.33806       -9.45127       -0.82957
H         -5.18261      -10.33296       -2.15708
C         -4.84566       -4.89418        1.68163
C         -4.06137       -4.37924        2.67828
C         -3.84828       -3.04206        2.36557
C         -4.61262       -2.74925        1.24188
N         -5.06523       -3.91160        0.81334
C         -4.98385       -1.44559        0.45117
N         -4.83235       -0.21555        1.15853
C         -5.67781       -0.09819        2.43670
H         -3.63596       -4.93119        3.50187
H         -5.11966       -5.92822        1.53583
H         -3.22169       -2.38410        2.92983
H         -6.01946       -1.51295        0.13644
H         -4.54914       -1.21137       -0.52007
C         -5.32235       -1.04261        3.62286
C         -5.48164        1.30368        3.02316
C         -7.18527       -0.33589        2.17149
H         -4.26107       -0.94085        3.91759
H         -5.88254       -0.79340        4.54575
H         -5.67538       -2.07935        3.46320
H         -5.83759        2.08008        2.32316
H         -6.05494        1.40810        3.97529
H         -4.40771        1.46752        3.25991
H         -7.59464        0.39917        1.45496
H         -7.37267       -1.36575        1.79479
H         -7.76150       -0.26768        3.12230
