68
speciation125.ct
Na         3.05528       -0.70656        1.62064
Mg         3.51549       -0.16419       -1.66324
C          2.82786        0.77655       -4.22382
C          3.76063        2.49022       -2.83877
O          3.03990        1.26228       -2.90272
C          4.08299        0.66235       -5.09292
C          2.96954        3.68506       -3.39716
H          2.41835       -0.24779       -4.12915
H          2.04007        1.36514       -4.74171
H          3.97653        2.71557       -1.77416
H          4.74449        2.42514       -3.33608
H          2.04858        3.86374       -2.80341
H          3.60095        4.59925       -3.35185
H          2.69230        3.53402       -4.46097
H          4.85383        0.09185       -4.56069
H          3.83811        0.13046       -6.03429
H          4.49285        1.65520       -5.36352
C          2.40371        1.55713        3.77170
C          1.76260        2.77384        3.61891
C          1.39596        2.85864        2.28893
C          1.81819        1.69439        1.68140
N          2.43808        0.91390        2.58977
C          1.63564        1.32297        0.21543
N          2.15182       -0.04178       -0.12995
C          1.10215       -1.06309       -0.38127
H          1.59129        3.50934        4.39379
H          2.83093        1.17207        4.68893
H          0.86727        3.68746        1.82255
H          2.16377        2.07744       -0.39392
H          0.55734        1.43363       -0.01614
C          0.27405       -0.72767       -1.63216
C          1.82868       -2.39173       -0.60530
C          0.16255       -1.23776        0.84382
H          0.93592       -0.53885       -2.49201
H         -0.40690       -1.56975       -1.89595
H         -0.37080        0.16584       -1.49450
H          2.42455       -2.65654        0.29167
H          1.11297       -3.21663       -0.80492
H          2.50366       -2.29958       -1.47305
H          0.74128       -1.48990        1.75778
H         -0.44114       -0.33073        1.04470
H         -0.55199       -2.07092        0.65475
Na         4.65915       -2.96941       -0.10427
C          7.12932       -5.35577       -3.72875
C          6.27233       -5.90854       -2.80526
C          5.40205       -4.90383       -2.38917
C          5.71470       -3.77638       -3.04119
N          6.80763       -4.00099       -3.91536
C          4.97138       -2.44434       -2.99760
N          5.02836       -1.64321       -1.74134
C          6.31960       -0.97496       -1.40629
H          6.28146       -6.94795       -2.49438
H          7.92190       -5.88081       -4.25224
H          4.58438       -5.03793       -1.69555
H          3.91188       -2.67925       -3.22679
H          5.32866       -1.84970       -3.84784
C          6.83216       -0.06292       -2.54011
C          6.06437       -0.09230       -0.17247
C          7.42251       -1.99193       -1.04458
H          6.08407        0.71351       -2.77442
H          7.76499        0.45670       -2.22819
H          7.08141       -0.63206       -3.45764
H          5.70377       -0.70334        0.68166
H          6.99489        0.43159        0.14190
H          5.29570        0.67887       -0.39664
H          7.10622       -2.63903       -0.20035
H          7.70269       -2.62581       -1.90328
H          8.35040       -1.45793       -0.73973
