96
speciation1479.ct
Na         1.38245        1.66773       -0.20769
Mg         3.60786       -0.49620       -1.59965
C          5.85626       -2.52494       -1.49633
C          3.67677       -3.48081       -1.75012
O          4.45768       -2.29077       -1.66468
C          6.49828       -3.28182       -2.67567
C          3.85290       -4.48069       -0.58936
H          6.36708       -1.54411       -1.40421
H          6.05911       -3.04077       -0.53581
H          2.61552       -3.18655       -1.75971
H          3.83506       -3.98989       -2.72630
H          3.62729       -4.01500        0.38670
H          3.15400       -5.33222       -0.71799
H          4.87664       -4.90852       -0.56109
H          6.40245       -2.70489       -3.61778
H          7.57631       -3.44999       -2.46944
H          6.04424       -4.28371       -2.82649
H          1.98809        0.62967       -3.50793
C          1.25655       -1.34584       -3.98501
C          2.39261       -0.40407       -3.52258
C          0.71005       -0.93290       -5.38439
H          1.64829       -2.38278       -4.05115
H          0.43074       -1.31087       -3.25117
H          0.31102        0.10403       -5.33577
H          1.52093       -0.96145       -6.14219
C         -0.42182       -1.84950       -5.86771
H          3.16664       -0.48253       -4.30746
H         -0.05871       -2.89056       -6.00062
H         -1.26216       -1.84423       -5.13809
H         -0.80993       -1.48961       -6.84598
C         -1.70304        0.99610       -0.24154
C         -2.43499       -0.16851       -0.13059
C         -1.52766       -1.19961       -0.01202
C         -0.27503       -0.61309       -0.05103
N         -0.38954        0.71185       -0.16621
C          1.04911       -1.31247        0.00754
N          2.19221       -0.35548        0.04249
C          2.82826       -0.29028        1.38732
H         -3.51317       -0.24549       -0.14090
H         -2.09361        1.98549       -0.36773
H         -1.75096       -2.24608        0.08772
H          1.11171       -1.94450       -0.88900
H          1.01509       -1.97965        0.88712
C          3.46017       -1.63908        1.83205
C          3.95391        0.67591        1.24111
C          1.88079        0.24159        2.48647
H          4.17315       -1.99408        1.06100
H          4.03880       -1.50362        2.77279
H          2.72094       -2.43342        2.03738
H          3.60596        1.67538        0.89824
H          4.56134        0.78705        2.16510
H          4.53125        0.16482        0.46397
H          1.47235        1.23719        2.21051
H          1.03713       -0.45341        2.67670
H          2.43779        0.35839        3.44141
Mg        -0.30810        6.97425        2.09214
C          5.33205        1.39825       -3.07193
C          6.17360        1.51955       -0.88141
O          5.04529        1.10389       -1.70415
C          6.60037        0.73602       -3.63205
C          6.41226        3.03913       -0.83173
H          4.48957        1.05628       -3.67454
H          5.33887        2.49261       -3.25932
H          6.08881        1.28964        0.17850
H          7.09776        0.96779       -1.13620
H          5.53028        3.55865       -0.41110
H          7.26715        3.25247       -0.15393
H          6.66954        3.46729       -1.81919
H          6.56830       -0.35636       -3.44052
H          6.66725        0.90753       -4.72341
H          7.52311        1.16303       -3.19399
C          2.81970        4.40987       -0.78340
C          2.75227        5.75396       -0.48013
C          1.64105        5.92321        0.31676
C          1.07331        4.67127        0.46416
N          1.80404        3.75151       -0.19900
C         -0.15807        4.33159        1.26047
N         -1.12970        5.43710        1.21688
C         -2.41678        5.22474        1.92219
H          3.43968        6.52458       -0.80129
H          3.57331        3.93362       -1.39088
H          1.29378        6.85774        0.73626
H         -0.59400        3.40753        0.83679
H          0.16296        4.13528        2.30274
C         -2.19995        4.88716        3.41244
C         -3.20722        6.53997        1.82839
C         -3.25268        4.11390        1.25903
H         -1.59570        5.67747        3.90613
H         -3.17604        4.80670        3.93860
H         -1.68556        3.91190        3.53694
H         -3.39415        6.80757        0.76556
H         -4.18774        6.45173        2.34487
H         -2.63812        7.36917        2.30099
H         -3.39991        4.32479        0.17794
H         -2.76578        3.13005        1.38565
H         -4.25169        4.03610        1.74055
