83
speciation558.ct
Na         1.14917        1.28399        0.13986
Mg         4.43531        5.54090       -1.19158
C         -1.43780        2.61007        1.44948
C         -1.05040        1.06110        3.06202
O         -0.44046        1.72561        1.92557
C         -0.97730        3.16645        0.14726
C         -0.20099       -0.01203        3.72954
H         -2.42813        2.12268        1.26628
H         -1.56004        3.46083        2.16258
H         -1.28968        1.80746        3.87069
H         -2.00894        0.55932        2.77021
H          0.62805        0.44041        4.30773
H         -0.84242       -0.57232        4.45280
H          0.17198       -0.72948        2.97684
H         -0.87553        2.34661       -0.59304
H         -1.67218        3.94612       -0.22548
H         -0.00512        3.60508        0.36837
C         -0.29150       -1.39962       -1.03549
C         -0.06834       -2.74912       -0.81848
C          1.04215       -2.84157       -0.00190
C          1.45647       -1.53984        0.23845
N          0.63323       -0.66851       -0.38264
C          2.65298       -1.13386        1.08755
N          2.94219        0.33363        1.02739
C          4.12907        0.72546        0.22931
H         -0.66412       -3.57554       -1.19310
H         -1.10865       -0.98219       -1.60480
H          1.48363       -3.76012        0.37142
H          3.51885       -1.74192        0.75681
H          2.45203       -1.43797        2.13586
C          3.93436        0.31697       -1.23988
C          4.25796        2.25128        0.34022
C          5.45728        0.13700        0.76798
H          2.95293        0.66942       -1.59641
H          4.73232        0.74629       -1.88184
H          3.95019       -0.78621       -1.35723
H          4.43005        2.55133        1.39877
H          5.10859        2.62980       -0.26675
H          3.33537        2.73877       -0.00257
H          5.62604        0.44433        1.82190
H          5.50702       -0.96638        0.71014
H          6.30846        0.51967        0.15963
Na         1.81236        7.61685       -2.38316
C         -0.32170        9.17625       -3.57505
C          1.38219        8.68057       -5.12837
O          1.07290        8.94283       -3.76741
C         -1.22568        7.97242       -3.85841
C          2.89079        8.50908       -5.30484
H         -0.44585        9.43194       -2.50294
H         -0.67061       10.07772       -4.13141
H          0.89292        7.75227       -5.49667
H          1.07670        9.55251       -5.74666
H          3.25228        7.59009       -4.79502
H          3.12115        8.41627       -6.38845
H          3.43732        9.38732       -4.90323
H         -0.82407        7.07588       -3.34413
H         -2.25448        8.18175       -3.48661
H         -1.30117        7.78603       -4.94730
C          1.85012        2.42240       -3.28829
C          2.02205        3.52488       -4.13130
C          1.95855        4.62774       -3.33776
C          1.76081        4.16079       -2.05643
N          1.63166        2.79701       -1.98581
C          1.64521        5.05292       -0.90202
N          2.59725        6.19032       -0.92907
C          2.60561        6.93172        0.34811
H          2.17623        3.55630       -5.20853
H          1.87388        1.40776       -3.65484
H          2.04606        5.66426       -3.64876
H          0.61304        5.43526       -0.87119
H          1.86710        4.36374       -0.08927
C          2.92056        5.90835        1.52291
C          3.68042        8.03194        0.16337
C          1.25870        7.71029        0.53455
H          3.77092        5.24337        1.23520
H          3.11590        6.28458        2.54321
H          2.05641        5.23113        1.71698
H          3.33370        8.73376       -0.63276
H          3.80570        8.64759        1.08221
H          4.66070        7.65198       -0.18344
H          0.63437        7.65145       -0.38347
H          0.67989        7.43729        1.43600
H          1.40926        8.81115        0.61266
