110
speciation2492.ct
Na         0.99123        0.02879        0.09536
Mg         4.11081       -1.60942       -0.55077
C         -2.19774       -0.78881        0.89632
C         -1.99879        0.31121       -1.11796
O         -1.32877        0.02879        0.09536
C         -1.72392       -1.01823        2.32785
C         -1.91170       -0.85188       -2.11965
H         -3.16779       -0.25746        1.02488
H         -2.38631       -1.78576        0.43777
H         -3.06566        0.59198       -0.97366
H         -1.60738        1.25868       -1.47365
H         -2.47692       -1.73446       -1.75919
H         -2.37909       -0.57927       -3.08202
H         -0.86100       -1.14214       -2.30153
H         -1.31208       -0.08639        2.75985
H         -2.58339       -1.36862        2.93690
H         -1.00079       -1.84394        2.40817
H          6.37347       -2.07168        1.22596
C          6.52593       -3.93164        0.34158
C          5.63275       -2.78072        0.82336
C          7.49405       -3.45059       -0.74163
H          7.13076       -4.29373        1.20685
H          5.90448       -4.77118       -0.03077
H          6.89265       -3.13697       -1.60202
H          8.09595       -2.58729       -0.37434
C          8.45616       -4.54351       -1.19522
H          5.12706       -3.14105        1.73711
H          9.12793       -4.84326       -0.36257
H          7.89188       -5.42868       -1.55424
H          9.08171       -4.15757       -2.02942
C          6.02745       -0.98059       -2.96413
C          6.23580        0.24178       -3.57513
C          5.43653        1.14732       -2.91951
C          4.79152        0.43448       -1.93136
N          5.15113       -0.84749       -1.94406
C          3.76594        0.97470       -0.98726
N          3.36123        0.02879        0.09536
C          3.84151        0.54104        1.46546
H          6.88294        0.44407       -4.41858
H          6.48494       -1.90356       -3.27954
H          5.33035        2.20190       -3.14125
H          2.91744        1.14626       -1.63451
H          4.13597        1.94722       -0.61612
C          3.16731        1.88678        1.85254
C          3.49296       -0.40501        2.65777
C          5.37419        0.73335        1.49592
H          2.06167        1.78480        1.84000
H          3.47251        2.19197        2.88000
H          3.44574        2.73326        1.20038
H          3.88191       -1.42978        2.51776
H          3.91549       -0.03208        3.61616
H          2.39817       -0.42750        2.86611
H          5.87044       -0.13115        1.06447
H          5.71190        1.60361        0.90761
H          5.74558        0.87610        2.53674
Na         1.19875       -0.32364       -2.07097
Mg         4.04322       -6.24813       -2.93964
C         -0.77045        1.70910       -3.99012
C          0.84019        2.72136       -2.57016
O          0.06610        1.54901       -2.84081
C         -0.10666        2.27123       -5.25395
C          0.04928        3.93639       -2.08317
H         -1.15759        0.71948       -4.27211
H         -1.65836        2.32829       -3.72396
H          1.48747        2.52953       -1.71153
H          1.51191        2.97321       -3.41774
H         -0.40266        3.72589       -1.09039
H          0.76159        4.78423       -1.95951
H         -0.73152        4.25401       -2.79873
H          0.79471        1.67679       -5.50347
H         -0.82694        2.21459       -6.09792
H          0.15967        3.34321       -5.13368
H          5.38933       -8.32165       -1.78852
C          3.51145       -9.29347       -2.22088
C          4.31138       -8.07524       -1.76629
C          3.87740       -9.65398       -3.66316
H          3.72980      -10.16611       -1.55870
H          2.42682       -9.06791       -2.14719
H          3.69935       -8.77263       -4.31255
H          4.95402       -9.93015       -3.71199
C          3.04476      -10.82229       -4.19195
H          4.04669       -7.86667       -0.69337
H          3.20165      -11.73242       -3.57523
H          1.96601      -10.55737       -4.18840
H          3.35032      -11.04322       -5.23656
C          4.29419       -4.24943       -5.20693
C          3.96613       -2.95613       -5.56774
C          3.29999       -2.39083       -4.49322
C          3.28596       -3.36077       -3.52079
N          3.88820       -4.49256       -3.95518
C          2.52161       -3.37333       -2.26317
N          2.35582       -2.23665       -1.28453
C          1.59135       -2.99094       -0.10935
H          4.14897       -2.49540       -6.52453
H          4.77681       -4.98913       -5.83289
H          2.85193       -1.41605       -4.43860
H          2.99449       -4.22930       -1.76444
H          1.52197       -3.69291       -2.61437
C          2.38796       -4.14378        0.60595
C          1.26613       -2.10629        1.05119
C          0.21909       -3.62261       -0.50249
H          3.29234       -3.76256        1.06913
H          1.78910       -4.57005        1.44740
H          2.61409       -5.05107        0.02326
H          0.34920       -1.57291        0.86916
H          1.06796       -2.61035        2.02371
H          2.13377       -1.54015        1.16413
H         -0.40800       -2.89728       -1.04139
H          0.32324       -4.55253       -1.09286
H         -0.35151       -3.93003        0.40724
