81
speciation400.ct
Na         0.31604        1.36633       -0.20181
Mg        -0.30970       -0.93700        0.04972
C          1.45329        3.05787       -2.33744
C          0.99070        4.43125       -0.44221
O          0.73939        3.21477       -1.11735
C          2.97243        3.28418       -2.21961
C          0.49999        5.64121       -1.24834
H          1.28440        2.02784       -2.66680
H          1.01446        3.68702       -3.14122
H          0.42713        4.42371        0.50575
H          2.05469        4.53388       -0.14825
H         -0.58221        5.53318       -1.47428
H          0.66231        6.57180       -0.66789
H          1.05739        5.74293       -2.20271
H          3.38214        2.65887       -1.40591
H          3.45851        3.02686       -3.18321
H          3.21669        4.34391       -2.01718
H         -1.89633       -3.02018       -0.81513
C         -0.51687       -4.26670        0.23371
C         -0.81604       -3.00657       -0.57417
C         -1.24286       -4.25605        1.58017
H         -0.84853       -5.15670       -0.35024
H          0.57880       -4.35145        0.37842
H         -0.94176       -3.36024        2.15899
H         -2.34258       -4.21804        1.41754
C         -0.89913       -5.50353        2.39012
H         -0.28240       -3.10695       -1.54422
H         -1.22983       -6.41920        1.85453
H          0.19749       -5.55891        2.56144
H         -1.40994       -5.46127        3.37468
C         -4.57416        3.77855        1.70559
C         -3.35862        4.41866        1.59363
C         -2.39978        3.42982        1.52145
C         -3.07318        2.22709        1.58776
N         -4.39929        2.44589        1.71861
C         -2.45183        0.85893        1.51396
N         -1.72180        0.58223        0.23582
C         -2.57285        0.52590       -0.99242
H         -3.19160        5.48749        1.56078
H         -5.53931        4.26301        1.78644
H         -1.33821        3.56528        1.42784
H         -3.20665        0.08049        1.71371
H         -1.79601        0.82362        2.38405
C         -3.12036        1.91449       -1.39827
C         -1.69300        0.05778       -2.15244
C         -3.75861       -0.45678       -0.82126
H         -2.29510        2.65348       -1.46506
H         -3.62625        1.85400       -2.38653
H         -3.89825        2.29300       -0.72797
H         -1.24486       -0.92456       -1.94715
H         -2.28901       -0.03398       -3.08569
H         -0.86792        0.77850       -2.33086
H         -3.40333       -1.47061       -0.57151
H         -4.46127       -0.13876       -0.02360
H         -4.35904       -0.51317       -1.75399
Mg        -5.82108        1.11890        1.85431
C          2.21077       -0.11827       -3.78229
C          3.48954        0.36053       -3.61813
C          3.81049        0.22331       -2.28162
C          2.75784       -0.31581       -1.64949
N          1.70770       -0.57761       -2.54969
C          2.76715       -0.69872       -0.19683
N          1.56325       -0.31852        0.59304
C          1.71042       -0.65324        2.04682
H          4.12213        0.77426       -4.39623
H          1.66730       -0.13336       -4.71585
H          4.76264        0.48341       -1.83305
H          3.68017       -0.24887        0.24707
H          2.87877       -1.79676       -0.19615
C          2.76923        0.22302        2.75321
C          0.38450       -0.38245        2.73102
C          2.04827       -2.14710        2.26884
H          2.52106        1.30022        2.64214
H          2.78884       -0.01446        3.84097
H          3.79284        0.04764        2.37516
H         -0.42564       -0.96385        2.24277
H          0.40735       -0.66442        3.80628
H          0.21179        0.70933        2.67120
H          1.28402       -2.78288        1.79526
H          3.04277       -2.42271        1.86545
H          2.07394       -2.38971        3.35290
