95
speciation1423.ct
Na         1.88197       -2.66059        0.57645
Mg         2.87271       -0.63371       -2.07061
C          3.08667       -4.71282        2.05042
C          1.90975       -5.94133        0.45446
O          2.44043       -4.67010        0.79668
C          4.50973       -5.21942        1.88990
C          0.89467       -5.81827       -0.65580
H          3.13594       -3.66808        2.41739
H          2.52335       -5.27307        2.83491
H          2.73587       -6.57562        0.06342
H          1.40612       -6.45178        1.30773
H          1.38113       -5.35927       -1.53549
H          0.53348       -6.83162       -0.93312
H          0.02784       -5.20929       -0.33029
H          4.98255       -4.69233        1.04326
H          5.09371       -5.01361        2.80867
H          4.51228       -6.30983        1.68461
H          3.41391        1.89959       -3.38792
C          1.49962        1.85378       -4.32877
C          2.70947        1.11008       -3.73000
C          1.80802        2.84715       -5.48345
H          0.77686        1.10814       -4.72129
H          1.01699        2.43897       -3.51642
H          0.83866        3.29741       -5.78917
H          2.46948        3.67314       -5.13976
C          2.42455        2.21309       -6.73670
H          3.16113        0.58279       -4.59209
H          3.46831        1.89001       -6.55095
H          1.81946        1.34889       -7.08267
H          2.44438        2.96656       -7.55738
C          1.02255       -1.68560        3.40048
C          0.56181       -0.51547        3.97314
C          0.48009        0.41496        2.95170
C          0.89959       -0.24437        1.81042
N          1.19716       -1.49971        2.09283
C          1.00005        0.30520        0.40366
N          1.36674       -0.79552       -0.56286
C          0.22081       -1.32129       -1.33749
H          0.33143       -0.36481        5.01680
H          1.20674       -2.62455        3.91493
H          0.16161        1.44625        3.04756
H          1.77586        1.09759        0.38742
H          0.04000        0.78551        0.15232
C         -0.43157       -0.22951       -2.21198
C          0.82039       -2.38903       -2.23882
C         -0.86527       -1.97356       -0.45311
H          0.36461        0.35842       -2.67043
H         -1.06995       -0.67193       -3.00323
H         -1.07229        0.46744       -1.63560
H          1.31601       -3.15615       -1.61457
H          0.05580       -2.86927       -2.87544
H          1.58723       -1.94473       -2.89120
H         -0.43178       -2.75040        0.20821
H         -1.38620       -1.22309        0.17724
H         -1.63096       -2.46119       -1.09698
Na         6.25914       -0.97591       -0.96633
Mg         4.49511       -6.45379       -3.17163
H          3.37517       -7.73027       -5.32895
C          1.69745       -7.32301       -3.98784
C          3.17175       -7.57222       -4.24840
C          1.28030       -5.91569       -4.41266
H          1.10005       -8.08719       -4.53341
H          1.51304       -7.44618       -2.90475
H          1.88292       -5.16543       -3.85438
H          1.46329       -5.77854       -5.49943
C         -0.20135       -5.69132       -4.11745
H          3.43788       -8.52276       -3.73847
H         -0.81957       -6.43878       -4.65676
H         -0.40855       -5.79030       -3.03246
H         -0.50095       -4.67351       -4.43763
C          7.01262       -5.82193       -1.81224
C          7.67699       -4.91895       -1.01111
C          6.82147       -3.85664       -0.81569
C          5.66405       -4.14095       -1.51777
N          5.78603       -5.36276       -2.12125
C          4.43471       -3.22715       -1.58882
N          4.69522       -1.86126       -2.13260
C          5.19079       -1.79591       -3.53609
H          8.67267       -5.02948       -0.60303
H          7.39854       -6.77778       -2.14067
H          7.02837       -2.97987       -0.21942
H          4.06474       -3.09683       -0.55380
H          3.62459       -3.72424       -2.15537
C          4.06897       -2.23783       -4.49257
C          5.63504       -0.34441       -3.76592
C          6.45306       -2.62920       -3.85247
H          3.15557       -1.63730       -4.35522
H          4.38800       -2.15357       -5.55112
H          3.80421       -3.30375       -4.31801
H          6.56646       -0.12299       -3.19854
H          5.81754       -0.13662       -4.84434
H          4.93219        0.35135       -3.34166
H          7.27780       -2.38572       -3.14565
H          6.26599       -3.71398       -3.87011
H          6.81156       -2.40106       -4.88020
