83
speciation531.ct
Na         1.87635        0.30173        0.61363
Li         3.82224        6.14983        0.93009
C          2.82546       -0.55909        3.31482
C          1.13528        1.08627        3.36703
O          2.24959        0.56260        2.65544
C          1.94226       -1.81928        3.35518
C          1.56326        1.92733        4.57077
H          3.77188       -0.80111        2.79941
H          3.16561       -0.29200        4.33036
H          0.56095        1.73825        2.68126
H          0.41743        0.31476        3.69481
H          2.18204        2.78284        4.23793
H          0.66021        2.30687        5.09166
H          2.13692        1.32963        5.30814
H          1.82432       -2.20246        2.35591
H          2.42691       -2.60793        3.96462
H          0.91725       -1.68730        3.74316
C          1.70878        6.64628       -1.00902
C          0.54124        6.10521       -1.50659
C          0.58288        4.75625       -1.23640
C          1.77271        4.52674       -0.57675
N          2.47493        5.68459       -0.45857
C          2.09008        3.20754        0.08989
N          1.88419        2.06882       -0.82598
C          2.88662        1.78176       -1.87555
H         -0.29707        6.64373       -1.92988
H          1.92359        7.70528       -0.94412
H         -0.21049        4.04058       -1.40844
H          1.32754        3.09104        0.88543
H          3.07209        3.18312        0.59676
C          4.23090        1.47707       -1.20223
C          2.40179        0.51486       -2.62215
C          2.99470        2.88626       -2.91083
H          4.08475        0.75454       -0.37512
H          4.95701        1.05790       -1.92971
H          4.66299        2.38804       -0.75453
H          1.38605        0.65386       -3.05755
H          3.09863        0.21419       -3.43439
H          2.35200       -0.34465       -1.94625
H          2.00143        3.05948       -3.37739
H          3.37235        3.81846       -2.46528
H          3.70918        2.57590       -3.70658
Na         1.18936        0.23496       -0.39054
C          4.75068        6.16148        3.57246
C          5.38388        7.99666        2.33828
O          5.13571        6.60339        2.28387
C          4.44139        4.67432        3.56315
C          5.79041        8.52017        0.96947
H          5.59494        6.30889        4.28640
H          3.84992        6.70600        3.94045
H          4.48772        8.56190        2.68206
H          6.24176        8.19663        3.02185
H          4.95101        8.41322        0.25164
H          6.05484        9.59698        1.05393
H          6.67620        7.96687        0.59224
H          5.31717        4.10002        3.19556
H          4.21075        4.34509        4.60029
H          3.56255        4.47009        2.91761
C         -1.85884        0.70541        0.32500
C         -2.84869       -0.23531        0.49913
C         -2.25545       -1.47687        0.31219
C         -0.93819       -1.22960        0.01697
N         -0.70387        0.08278        0.03734
C          0.14443       -2.19948       -0.41323
N          1.48773       -1.84245        0.12984
C          2.58819       -2.80816       -0.27773
H         -3.89003       -0.03453        0.71642
H         -1.96884        1.78702        0.37737
H         -2.74502       -2.44139        0.34572
H         -0.15530       -3.23704       -0.19621
H          0.19606       -2.05883       -1.50879
C          2.64031       -3.13030       -1.78893
C          3.98832       -2.28085        0.12381
C          2.41421       -4.15277        0.47666
H          2.92890       -2.26659       -2.40753
H          3.43320       -3.88671       -1.97521
H          1.69601       -3.55807       -2.14719
H          4.10466       -2.16504        1.21081
H          4.77483       -3.01406       -0.17572
H          4.23816       -1.34083       -0.38910
H          2.48865       -4.04789        1.58053
H          1.44847       -4.63527        0.24409
H          3.21697       -4.86558        0.19776
