81
speciation371.ct
Na         1.08162       -0.05774        0.00218
Mg         4.11494        1.22713        1.36937
C         -1.81443       -0.86676       -1.00033
C         -1.98310        1.12756        0.17704
O         -1.23838       -0.05774        0.00218
C         -1.01432       -2.15564       -1.13440
C         -1.32122        1.99927        1.23214
H         -2.84736       -1.16039       -0.70414
H         -1.82359       -0.34620       -1.98410
H         -2.07429        1.70693       -0.76972
H         -2.99364        0.86646        0.56700
H         -0.34528        2.37482        0.86039
H         -1.97839        2.86517        1.46275
H         -1.16072        1.41559        2.16373
H         -0.97654       -2.68717       -0.15955
H         -1.49714       -2.81929       -1.88327
H          0.02088       -1.93257       -1.46823
H          5.82796        2.85555        2.50686
C          4.77377        1.87000        4.13679
C          4.79494        2.54429        2.77090
C          5.25300        2.82266        5.23741
H          3.73492        1.54888        4.35197
H          5.42667        0.97152        4.10238
H          6.29189        3.15444        5.02108
H          4.59211        3.71650        5.26962
C          5.22657        2.14142        6.60322
H          4.12874        3.43305        2.76425
H          4.19505        1.81125        6.85132
H          5.90275        1.25993        6.60793
H          5.56827        2.85587        7.38167
C          6.52888       -1.79383        2.68619
C          7.19400       -2.12655        1.52651
C          6.25939       -2.08647        0.51412
C          5.07398       -1.66434        1.08866
N          5.23390       -1.54586        2.41943
C          3.75922       -1.46206        0.38227
N          3.45162       -0.05774        0.00218
C          4.31070        0.58117       -1.05990
H          8.23872       -2.39028        1.43354
H          6.95868       -1.76716        3.67838
H          6.43218       -2.30860       -0.53126
H          2.97839       -1.77831        1.10669
H          3.64334       -2.16708       -0.46356
C          4.35617       -0.24472       -2.37414
C          3.73896        1.98275       -1.34251
C          5.77578        0.88810       -0.58822
H          4.12271        0.37855       -3.26251
H          5.36957       -0.67360       -2.54670
H          3.63559       -1.08238       -2.37034
H          3.74840        2.59918       -0.41527
H          4.37586        2.51405       -2.09015
H          2.70885        1.93028       -1.73710
H          5.81429        1.44840        0.36633
H          6.32192        1.49612       -1.34075
H          6.42506        0.02229       -0.48912
Mg         3.83130       -1.21893        3.79271
C          1.46423        0.04765        5.15446
C          0.68538       -0.04947        6.28320
C          1.18213       -1.09915        7.02019
C          2.25618       -1.60012        6.30524
N          2.42870       -0.89199        5.16600
C          3.07308       -2.79731        6.71695
N          4.48838       -2.45483        6.92378
C          5.35128       -3.59471        7.37436
H         -0.17007        0.56774        6.53694
H          1.33376        0.77080        4.35593
H          0.80100       -1.47200        7.96115
H          2.63391       -3.18921        7.65486
H          2.96579       -3.55875        5.91488
C          5.43260       -4.69768        6.30042
C          6.78017       -3.04889        7.59575
C          4.86667       -4.19621        8.71200
H          5.80497       -4.28549        5.33912
H          6.13007       -5.50420        6.62281
H          4.44981       -5.18043        6.12672
H          6.77713       -2.27160        8.39492
H          7.46955       -3.85983        7.90769
H          7.17071       -2.59036        6.66271
H          4.78740       -3.40689        9.48721
H          3.87879       -4.69456        8.60867
H          5.57556       -4.98567        9.06872
