95
speciation1404.ct
Na         7.24246        0.85626        1.59757
Mg         2.72141        2.68097        3.83420
C          9.06156        1.52210        4.15521
C          9.81742        2.55967        2.23707
O          9.17878        1.40661        2.75088
C          8.40190        0.27950        4.73197
C          9.90167        2.48607        0.71997
H         10.07818        1.58069        4.60993
H          8.46419        2.41588        4.44543
H          9.26998        3.48990        2.51360
H         10.86467        2.60522        2.61472
H          8.88520        2.50526        0.27690
H         10.47182        3.36198        0.34097
H         10.42554        1.55834        0.40708
H          8.97230       -0.62813        4.44088
H          8.39136        0.35149        5.84137
H          7.35756        0.19460        4.36664
H          0.93033        3.78983        5.55789
C          2.44466        3.35178        7.01007
C          1.66893        2.97961        5.74174
C          3.46204        2.27618        7.39601
H          2.96609        4.31663        6.83929
H          1.72464        3.48546        7.85139
H          2.94123        1.31383        7.59485
H          4.17878        2.13963        6.55904
C          4.23510        2.67210        8.65293
H          1.08215        2.05606        5.94192
H          4.75675        3.64000        8.49654
H          3.54696        2.76584        9.52077
H          4.99291        1.89425        8.88576
C          3.21902       -0.07862        4.59264
C          3.64196       -1.32838        4.20397
C          4.02931       -1.22239        2.88542
C          3.83288        0.09700        2.52115
N          3.34470        0.80067        3.58137
C          3.99379        0.65326        1.12168
N          5.26440        0.29404        0.41939
C          5.39594        0.92739       -0.92771
H          3.63623       -2.22303        4.81270
H          2.81232        0.16822        5.56196
H          4.38426       -2.02826        2.26091
H          3.82175        1.74059        1.17397
H          3.15243        0.21002        0.55508
C          5.52226        2.46740       -0.84944
C          6.68739        0.39870       -1.56735
C          4.20191        0.58426       -1.84717
H          6.39846        2.76004       -0.23429
H          5.66934        2.90156       -1.86180
H          4.60208        2.94220       -0.45473
H          6.64657       -0.70323       -1.68466
H          6.84502        0.85749       -2.56903
H          7.56294        0.65648       -0.93309
H          4.06469       -0.51414       -1.91981
H          3.26064        1.04446       -1.47767
H          4.36663        0.99406       -2.86741
Na        -0.76446        7.40059        3.28612
Mg         5.19406       -1.61442        0.11160
H          4.74805       -4.18243        0.51102
C          6.66565       -4.06418       -0.53717
C          5.22842       -3.60986       -0.31464
C          7.55304       -3.85988        0.69127
H          6.66386       -5.15052       -0.79302
H          7.08905       -3.50646       -1.39676
H          7.15909       -4.44376        1.55293
H          8.57205       -4.23679        0.45217
C          7.67628       -2.38868        1.09327
H          4.65382       -3.76877       -1.24867
H          8.05878       -1.78506        0.24274
H          6.69769       -1.98762        1.41990
H          8.37860       -2.28913        1.94760
C         -1.57978        4.43987        2.80320
C         -1.10050        3.16716        2.57949
C          0.27895        3.25874        2.56923
C          0.57729        4.59117        2.79235
N         -0.55837        5.30362        2.93050
C          1.92872        5.23851        2.88310
N          3.05371        4.29433        2.71427
C          4.40053        4.94488        2.65193
H         -1.69601        2.27584        2.43934
H         -2.62142        4.72651        2.87105
H          0.97145        2.44313        2.41595
H          1.98028        5.71481        3.88000
H          1.93338        6.01030        2.09362
C          4.71703        5.72403        3.94387
C          5.50669        3.88179        2.50818
C          4.49702        5.86724        1.40623
H          4.71390        5.02625        4.81027
H          5.72413        6.19031        3.87723
H          3.99304        6.53704        4.13780
H          5.32495        3.24589        1.64242
H          6.49740        4.37062        2.35187
H          5.58437        3.22928        3.40085
H          4.28542        5.28495        0.48199
H          3.80259        6.72783        1.44272
H          5.51338        6.30449        1.31032
