80
speciation902.ct
Na         3.69845        0.25122        1.71727
Mg         3.45867        0.15303       -1.50390
H          1.50676       -0.81790       -3.11129
C          2.00385        0.67307       -4.51098
C          1.89313        0.21406       -3.06033
C          3.04469       -0.14264       -5.26221
H          1.01123        0.54804       -5.00433
H          2.26411        1.74962       -4.53996
H          4.01184        0.00349       -4.75856
H          2.78130       -1.22295       -5.23706
C          3.16181        0.31090       -6.71282
H          1.11015        0.85024       -2.59519
H          2.20585        0.13431       -7.25097
H          3.41340        1.39204       -6.75921
H          3.96737       -0.26456       -7.21452
C          2.22554        2.22485        3.73769
C          0.98144        2.82428        3.65202
C          0.41563        2.41088        2.46545
C          1.32856        1.55987        1.87234
N          2.41705        1.45518        2.65364
C          1.15705        0.83342        0.55420
N          2.24172       -0.16388        0.29747
C          1.82272       -1.56641        0.60883
H          0.55009        3.50880        4.37485
H          2.94933        2.34698        4.52777
H         -0.56660        2.68648        2.08733
H          1.12145        1.58114       -0.26149
H          0.15876        0.35151        0.57182
C          0.74670       -2.09347       -0.38026
C          3.06692       -2.36704        0.45358
C          1.35702       -1.80581        2.05470
H          1.06342       -1.95404       -1.42172
H          0.59017       -3.18549       -0.24731
H         -0.23958       -1.60721       -0.24528
H          3.88796       -2.05310        1.13085
H          2.92409       -3.46628        0.45485
H          3.30616       -2.01812       -0.49715
H          2.14203       -1.49357        2.77514
H          0.40954       -1.28464        2.28175
H          1.18665       -2.89939        2.19915
Na         9.50692        0.99789       -3.04782
Mg         9.11115       -2.27435       -3.36355
H          3.48018        2.84682       -0.67313
C          5.16202        3.29711       -1.91338
C          4.36158        2.28100       -1.05187
C          4.32772        3.84573       -3.07858
H          5.47324        4.16907       -1.28385
H          6.08948        2.81618       -2.28400
H          3.96346        2.98442       -3.66929
H          3.46010        4.41272       -2.67910
C          5.12162        4.75532       -4.01670
H          4.99935        2.07119       -0.16480
H          5.48056        5.66917       -3.49751
H          5.99163        4.21029       -4.44297
H          4.46628        5.06866       -4.85844
C          4.56347       -2.81282       -2.15239
C          5.60179       -3.71030       -2.19270
C          6.73798       -2.97657       -2.06147
C          6.33953       -1.65985       -1.95279
N          4.97873       -1.52606       -1.91190
C          7.32569       -0.55345       -1.95695
N          8.10401       -0.59892       -3.22531
C          7.38590       -0.40124       -4.51893
H          5.53543       -4.78436       -2.31402
H          3.53092       -3.12511       -2.24064
H          7.74846       -3.36754       -2.08345
H          6.84192        0.43050       -1.82565
H          8.03056       -0.69060       -1.10804
C          6.60688        0.92272       -4.50264
C          8.43241       -0.35102       -5.64136
C          6.44207       -1.57789       -4.89250
H          7.29891        1.76292       -4.28747
H          6.10907        1.10249       -5.47801
H          5.81946        0.90638       -3.72288
H          8.98673       -1.31323       -5.70229
H          7.93361       -0.18496       -6.62422
H          9.15549        0.47048       -5.47545
H          6.97086       -2.55405       -4.82520
H          5.53569       -1.62045       -4.28570
H          6.05129       -1.47055       -5.92548
