96
speciation1563.ct
Na         0.93347       -0.01145        0.07377
Mg        -2.10103       -1.43401        1.43889
C         -0.71927       -1.39025        3.73863
C         -0.54568       -3.52758        2.84682
O         -1.37278       -2.37862        2.96599
C          0.60969       -0.91523        3.11845
C         -1.26610       -4.66646        2.16052
H         -1.44252       -0.55914        3.80885
H         -0.57440       -1.71167        4.79044
H          0.36710       -3.32843        2.24978
H         -0.26430       -3.88949        3.86546
H         -1.50242       -4.38341        1.11461
H         -0.59478       -5.55313        2.15285
H         -2.18939       -4.92944        2.71028
H          0.44153       -0.67378        2.05488
H          1.00537       -0.02249        3.64317
H          1.39921       -1.68652        3.18844
H         -4.77869       -1.63277        0.86499
C         -4.78269       -2.98235        2.50475
C         -4.07011       -2.36092        1.30288
C         -5.17573       -1.93649        3.55065
H         -5.70968       -3.47865        2.13665
H         -4.13555       -3.75399        2.96454
H         -4.26297       -1.44069        3.94218
H         -5.83370       -1.16900        3.08646
C         -5.93649       -2.59018        4.70460
H         -3.91427       -3.17223        0.56182
H         -6.87147       -3.06421        4.33339
H         -5.30849       -3.36581        5.19210
H         -6.20762       -1.82305        5.45966
C         -0.67927        2.45384        3.72115
C         -1.08868        3.65029        3.19205
C         -1.50119        3.39546        1.89487
C         -1.35026        2.08664        1.63796
N         -0.82550        1.44456        2.75842
C         -1.71849        1.45004        0.31480
N         -1.43653       -0.01145        0.07377
C         -1.88592       -0.39176       -1.31547
H         -1.08604        4.60608        3.70019
H         -0.30125        2.30227        4.72817
H         -1.88291        4.12544        1.19516
H         -1.13577        2.04530       -0.41193
H         -2.79235        1.66516        0.21465
C         -1.09369        0.36083       -2.41872
C         -1.63848       -1.89207       -1.51555
C         -3.39743       -0.11793       -1.56901
H         -0.00547        0.18922       -2.31089
H         -1.40692        0.01183       -3.42589
H         -1.29242        1.45298       -2.42187
H         -2.21064       -2.48574       -0.78266
H         -1.96477       -2.20437       -2.53434
H         -0.55992       -2.13259       -1.40649
H         -4.03073       -0.63010       -0.83550
H         -3.65567        0.96150       -1.55985
H         -3.69840       -0.47367       -2.57731
Mg         3.96679        1.58058        1.06651
C          3.50294        3.71171        2.70865
C          5.30383        4.02104        1.16963
O          4.61345        3.13261        2.03430
C          2.48548        4.43081        1.81010
C          6.09427        5.08302        1.94143
H          2.96387        2.87827        3.20639
H          3.84696        4.37707        3.52833
H          6.04528        3.42280        0.59941
H          4.64285        4.47768        0.40727
H          6.83370        4.59644        2.61279
H          6.63765        5.73424        1.22517
H          5.42325        5.72690        2.54458
H          2.13995        3.75460        1.00016
H          1.61158        4.74110        2.41926
H          2.91172        5.35802        1.37352
C          7.33830       -2.07741        0.90161
C          7.31197       -0.92065        1.64884
C          5.99800       -0.48658        1.70726
C          5.23823       -1.33816        1.00925
N          6.03267       -2.38448        0.49493
C          3.74121       -1.23867        0.78598
N          3.30347       -0.01145        0.07377
C          3.80633        0.17061       -1.32986
H          8.17865       -0.45304        2.10350
H          8.22178       -2.66087        0.66640
H          5.65058        0.39917        2.21573
H          3.26499       -1.25131        1.78510
H          3.38777       -2.13534        0.24718
C          3.42640       -1.02099       -2.23340
C          3.16410        1.44790       -1.89466
C          5.34227        0.39248       -1.42107
H          2.32961       -1.18477       -2.22574
H          3.75246       -0.83301       -3.28042
H          3.93644       -1.95086       -1.90645
H          3.45968        2.33205       -1.28710
H          3.50459        1.62719       -2.94069
H          2.05970        1.37306       -1.89911
H          5.67017        1.22708       -0.76499
H          5.93293       -0.50916       -1.19377
H          5.63819        0.64249       -2.46411
