81
speciation743.ct
Na         2.89017       -2.47454        2.81383
Mg         2.23990        1.10934       -2.00598
C          1.24493        1.37609        0.91989
C          3.34667        2.45576        0.56697
O          2.28968        1.68264       -0.01326
C          0.59553        2.60884        1.58247
C          3.97239        1.90345        1.86118
H          0.44802        0.82363        0.38474
H          1.60535        0.68156        1.71175
H          4.19373        2.45984       -0.12662
H          3.01955        3.50644        0.71618
H          4.38568        0.90413        1.68083
H          4.81074        2.56415        2.17358
H          3.26398        1.85073        2.71169
H          0.17687        3.29113        0.81842
H         -0.22426        2.28634        2.26108
H          1.31740        3.17235        2.21179
H          1.38888        0.70646       -7.88179
C         -0.57777        0.33731       -7.06389
C          0.94227        0.26262       -6.96727
C         -1.28254       -0.25294       -5.83505
H         -0.87866        1.40025       -7.19165
H         -0.90197       -0.22677       -7.96470
H         -2.37947       -0.19274       -6.00495
H         -1.00305       -1.32042       -5.71063
C         -0.96547        0.50781       -4.55252
H          1.28182       -0.79055       -6.87279
H          0.11103        0.44221       -4.30127
H         -1.25923        1.56510       -4.68135
H         -1.53951        0.08195       -3.70437
C          2.40661       -1.67395       -3.50580
C          2.45106       -3.04915       -3.31609
C          2.41824       -3.24938       -1.96531
C          2.42778       -1.99700       -1.38304
N          2.38885       -1.01038       -2.32354
C          2.51316       -1.77851        0.07752
N          3.37149       -2.76809        0.75027
C          4.84685       -2.76026        0.53233
H          2.48377       -3.83481       -4.06146
H          2.41214       -1.20872       -4.48165
H          2.43926       -4.20325       -1.44526
H          1.48306       -1.91763        0.47607
H          2.81584       -0.74274        0.30699
C          5.46463       -1.38955        0.81927
C          5.44554       -3.78520        1.51214
C          5.25050       -3.20207       -0.89188
H          5.24701       -1.09523        1.86526
H          6.56835       -1.42371        0.69256
H          5.07844       -0.62841        0.10889
H          5.01680       -4.79364        1.32955
H          6.54880       -3.84531        1.39801
H          5.21840       -3.49930        2.56351
H          4.83668       -4.20492       -1.12769
H          4.93340       -2.46806       -1.65808
H          6.35520       -3.26925       -0.97805
Mg         1.59401        1.33807       -5.36096
C         -2.11341        4.07442       -3.72615
C         -1.88799        3.51784       -2.48717
C         -0.52880        3.26463       -2.38416
C          0.04871        3.65589       -3.51644
N         -0.90174        4.17206       -4.42486
C          1.52086        3.69474       -3.78165
N          2.22978        2.38716       -3.79401
C          3.69302        2.57957       -4.08835
H         -2.64098        3.34451       -1.73201
H         -3.07148        4.40176       -4.11077
H         -0.01232        2.87616       -1.51988
H          1.92672        4.36085       -2.99963
H          1.62217        4.18323       -4.77019
C          4.38484        3.49517       -3.05397
C          4.37800        1.20572       -4.03185
C          3.95704        3.17627       -5.49386
H          4.18950        3.11442       -2.05325
H          5.48404        3.52687       -3.21326
H          4.03889        4.54698       -3.10265
H          3.95723        0.53164       -4.80509
H          5.47033        1.30269       -4.22289
H          4.25217        0.74445       -3.03113
H          3.50888        2.54381       -6.28683
H          3.57976        4.21345       -5.59579
H          5.05289        3.24432       -5.67774
