110
speciation2609.ct
Na         1.07748       -0.32832        0.09041
Mg         0.90196        4.32355       -3.08764
C         -0.22091        6.16039       -6.07379
C         -0.01287        4.02989       -6.98678
O          0.10657        4.77938       -5.70033
C         -1.52550        6.42785       -6.89452
C          0.75376        4.56693       -8.29038
H         -0.33854        6.76449       -5.17640
H          0.62315        6.63951       -6.61938
H          0.31318        2.98272       -6.89110
H         -1.07901        3.90712       -7.26907
H          1.83670        4.75577       -8.25197
H          0.67600        3.80875       -9.09962
H          0.38713        5.51614       -8.71530
H         -2.40670        5.92698       -6.45318
H         -1.72197        7.52257       -6.94444
H         -1.46325        6.11919       -7.95749
H         -0.13091        6.52510       -1.09096
C         -1.54587        6.89625       -2.55797
C         -0.15355        6.48742       -2.20698
C         -2.51304        5.90293       -1.95727
H         -1.74558        7.91867       -2.15382
H         -1.67168        6.93635       -3.64610
H         -2.24954        4.86945       -2.29945
H         -2.44650        5.94292       -0.84612
C         -3.91184        6.22827       -2.40935
H          0.52817        7.29750       -2.54730
H         -4.18982        7.25786       -2.08731
H         -3.96500        6.16896       -3.51979
H         -4.61847        5.50003       -1.97025
C          4.04100       -1.28566        0.36418
C          5.33511       -0.83673        0.43111
C          5.28570        0.51761        0.28695
C          3.94505        0.87169        0.06136
N          3.18917       -0.24883        0.14864
C          3.41235        2.29783        0.02366
N          2.81677        3.15869       -1.12598
C          2.68901        4.45679       -0.36159
H          6.22991       -1.43169        0.61985
H          3.73111       -2.31295        0.48245
H          6.14592        1.16507        0.36181
H          2.75492        2.26193        0.90442
H          4.34471        2.77578        0.34682
C          4.02972        5.14858        0.06419
C          2.12819        5.30307       -1.33829
C          1.69233        4.46928        0.85665
H          4.74180        5.07628       -0.78578
H          3.86697        6.20707        0.30753
H          4.46569        4.71327        0.97944
H          1.15522        4.80879       -1.42895
H          2.06892        6.35519       -1.00959
H          2.79448        5.15460       -2.16667
H          0.72616        3.92002        0.59828
H          2.07484        3.99783        1.78827
H          1.40188        5.48651        1.15304
Na         3.95408        1.90288       -5.30431
Mg         4.13304        2.71539       -2.69109
C          7.08126        3.95355       -3.78410
C          6.86380        3.26949       -1.56018
O          6.13071        3.67362       -2.69957
C          7.96077        2.80649       -4.26142
C          7.66982        4.41272       -0.92961
H          6.64740        4.28541       -4.73072
H          7.64257        4.88989       -3.59744
H          6.14502        2.94637       -0.80927
H          7.50929        2.38905       -1.77207
H          6.99849        5.24198       -0.63249
H          8.20196        4.03632       -0.03375
H          8.44248        4.81056       -1.61593
H          7.38847        1.85920       -4.27722
H          8.30147        3.02227       -5.30251
H          8.86152        2.73813       -3.62469
H          5.34382        0.56343       -3.89763
C          4.08467       -0.88287       -2.95594
C          4.73875        0.52143       -2.97063
C          3.24552       -1.22509       -4.17599
H          4.89529       -1.64819       -2.88569
H          3.44187       -0.99595       -2.07764
H          2.42595       -0.49952       -4.26591
H          3.88393       -1.18563       -5.08334
C          2.63756       -2.62611       -4.04565
H          5.48236        0.50307       -2.16022
H          3.43277       -3.39591       -3.93759
H          1.96792       -2.68125       -3.15861
H          2.03962       -2.86079       -4.95035
C         -0.81043        2.26400       -1.63911
C         -0.78977        0.89807       -1.83566
C          0.07492        0.66185       -2.87999
C          0.57843        1.90822       -3.25846
N          0.00049        2.85088       -2.54606
C          1.53099        2.31943       -4.37239
N          2.73850        3.18580       -4.05126
C          3.00654        4.53683       -4.72514
H         -1.34010        0.15531       -1.25337
H         -1.32808        2.80349       -0.84960
H          0.32678       -0.30309       -3.29590
H          0.86190        2.86600       -4.96562
H          1.80944        1.43699       -4.97726
C          2.20568        5.85245       -4.38990
C          4.38552        4.95019       -4.39243
C          3.10894        4.31466       -6.21795
H          2.55290        6.49259       -3.56070
H          2.32920        6.60765       -5.18445
H          1.18121        5.74547       -4.13477
H          4.79457        3.94754       -4.40719
H          4.86561        5.58740       -5.16330
H          4.53781        5.52524       -3.45088
H          3.93375        3.65027       -6.51995
H          2.25258        3.77617       -6.49741
H          3.27422        5.28820       -6.73405
