96
speciation1480.ct
Na         2.47945        4.88236        4.92778
Mg        -1.95378        5.08724        0.90809
C         -4.02646        2.91291        0.47548
C         -4.94926        5.10377        0.20435
O         -3.81029        4.32109        0.55323
C         -4.62879        2.35732       -0.81552
C         -6.17210        4.86012        1.11185
H         -3.03438        2.43865        0.54320
H         -4.64330        2.58217        1.34239
H         -4.67487        6.16938        0.31295
H         -5.22265        4.96513       -0.86737
H         -5.90753        5.01851        2.17816
H         -6.99335        5.55993        0.84035
H         -6.57808        3.83214        0.99288
H         -3.98747        2.61264       -1.67957
H         -4.67876        1.24820       -0.72329
H         -5.66707        2.71060       -0.98272
H         -2.64510        6.30387        3.15087
C         -3.00101        8.09460        2.12833
C         -2.18909        6.79575        2.28059
C         -2.89130        8.96839        3.38704
H         -2.66843        8.71411        1.28053
H         -4.06446        7.82227        1.96074
H         -3.26757        8.40789        4.26087
H         -1.82311        9.24553        3.57337
C         -3.70390       10.24956        3.21961
H         -1.12779        7.06660        2.47734
H         -3.28393       10.86979        2.39864
H         -4.76112       10.00087        2.98051
H         -3.67948       10.83824        4.15933
C          1.51914        7.72139        3.93683
C          1.23871        8.92536        4.55208
C          1.48917        8.75639        5.89135
C          1.92099        7.45836        6.04624
N          1.93207        6.83127        4.86163
C          2.33637        6.76742        7.30594
N          2.79699        5.38753        7.01497
C          4.24500        5.13117        7.17613
H          0.89460        9.82400        4.06388
H          1.42692        7.49467        2.88502
H          1.38221        9.49870        6.67546
H          1.45763        6.72113        7.98588
H          3.11127        7.38114        7.79719
C          4.73330        5.36386        8.62268
C          4.46719        3.65197        6.84813
C          5.06002        5.98256        6.17753
H          4.15155        4.73818        9.33243
H          5.80620        5.08073        8.70932
H          4.65802        6.42127        8.93878
H          4.12665        3.46721        5.82348
H          5.54050        3.37191        6.92217
H          3.87684        3.00196        7.52916
H          4.72023        5.78938        5.13660
H          4.94742        7.06722        6.37968
H          6.14058        5.73142        6.23684
Mg         1.79664        4.12878        8.12205
C         -1.37605        7.28723       -1.05766
C         -0.76005        5.20192       -1.99023
O         -1.10696        5.90965       -0.79657
C         -2.56134        7.58224       -1.99018
C          0.37388        5.85704       -2.81204
H         -1.55155        7.75586       -0.10257
H         -0.46656        7.82929       -1.39698
H         -0.39367        4.20156       -1.68402
H         -1.65441        5.04835       -2.63954
H          0.04664        6.80799       -3.29110
H          0.69599        5.19412       -3.64066
H          1.24963        6.07477       -2.16449
H         -3.48525        7.09548       -1.62519
H         -2.73042        8.68153       -2.02553
H         -2.35278        7.25456       -3.03009
C          3.47656        2.27894        3.47173
C          3.24110        1.48693        2.37872
C          2.20181        2.07042        1.68319
C          1.84941        3.21303        2.38083
N          2.63400        3.33237        3.47571
C          0.74028        4.19439        2.02947
N         -0.63721        3.62584        1.99592
C         -1.10621        3.06887        3.33294
H          3.77248        0.57656        2.13747
H          4.23600        2.07639        4.21658
H          1.75533        1.70907        0.77783
H          0.76563        5.05715        2.72901
H          0.97641        4.60334        1.02916
C         -0.99749        4.10073        4.47620
C         -2.56807        2.64069        3.21326
C         -0.35399        1.78881        3.80211
H         -1.45983        5.04565        4.20734
H         -1.50560        3.73329        5.39438
H          0.05638        4.30969        4.74366
H         -2.64824        1.77970        2.51811
H         -2.96467        2.27105        4.18400
H         -3.19191        3.49883        2.90608
H         -0.34322        1.00573        3.01593
H          0.67141        1.97785        4.15186
H         -0.84553        1.36209        4.70587
