110
speciation2270.ct
Na         3.75470       -0.67317        2.03254
Mg         2.48995        4.75800       -0.78570
C          5.50863       -3.49723        1.56331
C          3.20750       -3.82073        1.39759
O          4.23469       -2.92796        1.77194
C          6.59280       -2.48520        1.89653
C          1.84959       -3.21120        1.71643
H          5.64007       -4.35504        2.26057
H          5.64774       -3.82546        0.50744
H          3.24760       -4.03268        0.30583
H          3.28327       -4.76374        1.98626
H          1.70340       -2.27370        1.13989
H          1.04759       -3.92971        1.44113
H          1.77202       -2.99110        2.80245
H          6.42651       -2.06856        2.91225
H          7.58404       -2.98771        1.87482
H          6.59117       -1.66071        1.15332
H          4.71168        5.18665        0.71866
C          4.38621        7.27685        0.36002
C          4.35369        5.81624       -0.12265
C          5.76536        7.63476        0.96367
H          4.16512        7.93822       -0.50404
H          3.61084        7.43171        1.14099
H          5.94985        7.00731        1.86468
H          6.57341        7.43398        0.22691
C          5.85149        9.10462        1.37848
H          5.09089        5.69507       -0.94128
H          5.72468        9.76250        0.49296
H          5.07369        9.34871        2.13252
H          6.84910        9.31166        1.82613
C          2.75300        2.18353        3.41125
C          2.45639        3.49658        3.20404
C          2.79643        3.77544        1.90974
C          3.30373        2.59205        1.36428
N          3.26438        1.63023        2.29875
C          3.82776        2.33911       -0.04172
N          2.91237        2.74203       -1.12010
C          1.66285        1.94226       -1.31056
H          1.99394        4.17582        3.90893
H          2.56862        1.61651        4.33299
H          2.64334        4.71579        1.41189
H          4.74436        2.96170       -0.14614
H          4.14451        1.29624       -0.14498
C          0.68956        1.98809       -0.11407
C          0.98447        2.51485       -2.56096
C          1.95397        0.47131       -1.59324
H          0.44440        3.01986        0.17281
H         -0.25291        1.45140       -0.36608
H          1.10096        1.45723        0.76666
H          1.64910        2.40307       -3.44613
H          0.02308        2.00007       -2.77759
H          0.80452        3.58880       -2.42581
H          2.64507        0.46067       -2.41902
H          2.36392       -0.06221       -0.70872
H          1.04917       -0.07078       -1.94295
Na         7.58517        6.29411       -3.20428
Mg         4.01233        2.41323       -2.74555
C         10.08115        7.88703       -3.23262
C         10.18882        6.30217       -1.53488
O          9.32989        7.18341       -2.25735
C          9.15515        8.64399       -4.16453
C         11.13797        7.05204       -0.57252
H         10.71311        8.65885       -2.74555
H         10.71208        7.20554       -3.85092
H          9.56262        5.63317       -0.90990
H         10.78468        5.65125       -2.21551
H         10.56240        7.64898        0.16617
H         11.77542        6.32728       -0.02232
H         11.83441        7.73012       -1.10952
H          8.52776        9.35032       -3.58176
H          9.76581        9.22030       -4.89228
H          8.50734        7.93641       -4.71970
H          1.13072        7.16954       -0.92687
C         -0.51691        5.95238       -1.60913
C          1.00100        6.25493       -1.54472
C         -1.12452        5.71392       -0.22101
H         -1.05027        6.81040       -2.07842
H         -0.70422        5.07357       -2.25420
H         -0.57656        4.90685        0.29221
H         -1.03512        6.63758        0.38985
C         -2.59912        5.31036       -0.30836
H          1.33664        6.50102       -2.57519
H         -3.20246        6.11170       -0.78525
H         -2.71141        4.37342       -0.89626
H         -2.99778        5.12804        0.71279
C          4.69094        6.53505       -4.62199
C          3.67790        5.88152       -5.29745
C          4.05437        4.57408       -5.39314
C          5.27141        4.47107       -4.74866
N          5.68299        5.67385       -4.28885
C          6.04154        3.19978       -4.63174
N          5.11228        2.08443       -4.37100
C          5.72577        0.74511       -4.21784
H          2.75754        6.30549       -5.68736
H          4.69165        7.59235       -4.39610
H          3.49757        3.76617       -5.86195
H          6.79092        3.32309       -3.82090
H          6.56464        3.02909       -5.59541
C          6.80297        0.75616       -3.10686
C          4.65853       -0.27022       -3.77482
C          6.24554        0.24978       -5.57880
H          7.71237        1.31049       -3.40675
H          7.09529       -0.27376       -2.80705
H          6.37201        1.25219       -2.20377
H          3.71567       -0.14756       -4.35340
H          5.00349       -1.31791       -3.90930
H          4.50820       -0.19347       -2.68396
H          5.40193        0.24268       -6.30649
H          7.05156        0.89263       -5.97572
H          6.63907       -0.78672       -5.49884
