68
speciation149.ct
Na         1.28640        1.87796       -0.00796
Mg         5.65895       -1.69805       -4.21173
C          7.13368       -4.02849       -4.01619
C          5.91868       -3.40350       -2.06822
O          6.64611       -2.97180       -3.20520
C          6.05578       -4.92875       -4.63587
C          6.83819       -3.93611       -0.96677
H          7.68690       -3.55405       -4.85475
H          7.88955       -4.64032       -3.47962
H          5.40359       -2.51290       -1.65460
H          5.11860       -4.13020       -2.31078
H          7.59025       -3.16706       -0.69004
H          6.23591       -4.18654       -0.06796
H          7.36177       -4.85837       -1.29125
H          5.29840       -4.31561       -5.15487
H          6.53043       -5.61495       -5.36913
H          5.55273       -5.56183       -3.87842
C         -1.78409        1.08084       -0.01903
C         -2.40105       -0.15753       -0.05246
C         -1.39415       -1.10363       -0.07628
C         -0.20548       -0.40474       -0.05325
N         -0.45335        0.91683       -0.02117
C          1.18648       -1.00883       -0.06115
N          2.24500        0.03300       -0.00400
C          3.12733        0.03668        1.18252
H         -3.46379       -0.34830       -0.06082
H         -2.27772        2.04281        0.00323
H         -1.51488       -2.17920       -0.10164
H          1.31651       -1.59058       -0.99612
H          1.25616       -1.72776        0.78006
C          3.96608       -1.25715        1.25027
C          4.08635        1.23151        1.03748
C          2.32005        0.23367        2.48402
H          4.55252       -1.38460        0.31723
H          4.67456       -1.21621        2.10602
H          3.33418       -2.15737        1.39002
H          3.52276        2.18777        0.99809
H          4.79721        1.27970        1.89071
H          4.67176        1.14932        0.10284
H          1.73389        1.17653        2.43463
H          1.61727       -0.60194        2.67252
H          3.00536        0.29708        3.35721
Na         3.59933        0.09296       -1.94799
C          4.54570       -2.36244       -7.00795
C          3.74381       -1.65901       -7.88699
C          3.45512       -0.45210       -7.28206
C          4.09706       -0.47890       -6.06341
N          4.75067       -1.63244       -5.89538
C          4.11673        0.59418       -5.02971
N          4.95365        0.15292       -3.89199
C          6.04650        1.07356       -3.49857
H          3.41158       -1.98774       -8.86172
H          4.95367       -3.34776       -7.18159
H          2.85656        0.35254       -7.68738
H          3.08435        0.78437       -4.67147
H          4.48824        1.51897       -5.50954
C          5.49103        2.45056       -3.06288
C          6.76388        0.44530       -2.29320
C          7.07478        1.24866       -4.63754
H          4.76192        2.33589       -2.23309
H          6.31527        3.10965       -2.71211
H          4.98196        2.97901       -3.89494
H          7.15833       -0.55686       -2.55106
H          7.61341        1.07970       -1.95899
H          6.06577        0.32497       -1.44272
H          7.45347        0.25999       -4.97224
H          6.64605        1.77503       -5.51330
H          7.93563        1.85945       -4.28808
