83
speciation493.ct
Na         2.16682        0.16114        0.75999
Mg         4.13996        5.75870       -0.38810
C          2.91770        1.64375        2.99840
C          4.37716       -0.17497        3.33299
O          3.15506        0.28229        2.73950
C          4.03252        2.54625        2.46276
C          4.11199       -0.76537        4.71186
H          1.99345        1.90389        2.45295
H          2.65789        1.80466        4.06817
H          4.89700       -0.92956        2.70830
H          5.14112        0.60377        3.46667
H          3.49274       -1.68152        4.63255
H          5.08534       -1.02208        5.18559
H          3.60473       -0.01852        5.35161
H          4.92647        2.09416        1.99305
H          3.80805        3.62588        2.57567
H          4.03093        2.38214        1.42130
C          1.64055        6.12123       -1.90046
C          0.38543        5.59167       -2.14538
C          0.35919        4.34161       -1.57399
C          1.60411        4.17510       -0.99575
N          2.38914        5.25539       -1.18898
C          2.02063        3.03655       -0.16693
N          2.02850        1.70005       -0.81617
C          2.93084        1.40745       -1.93316
H         -0.43472        6.08719       -2.65202
H          1.96746        7.11701       -2.17010
H         -0.48167        3.66767       -1.53077
H          1.32907        3.00401        0.69782
H          3.01222        3.32476        0.13623
C          4.35197        1.26684       -1.38282
C          2.51179        0.05821       -2.55181
C          2.85830        2.44574       -3.06616
H          4.35703        0.49525       -0.58012
H          5.05055        0.96526       -2.18602
H          4.68053        2.22347       -0.94796
H          1.45877        0.08286       -2.91231
H          3.14986       -0.19431       -3.42179
H          2.62185       -0.77251       -1.83215
H          1.79768        2.56532       -3.39862
H          3.25483        3.42381       -2.74980
H          3.45630        2.12914       -3.93956
Na         0.20390        1.29175       -1.41039
C          6.91548        5.85064       -0.45747
C          5.90114        5.69624        1.69819
O          5.84679        6.24936        0.39267
C          7.13351        4.33856       -0.58489
C          7.09278        6.19875        2.51840
H          6.67912        6.23544       -1.47168
H          7.85759        6.35774       -0.15996
H          4.98443        6.02393        2.23200
H          5.86865        4.58976        1.68088
H          7.07347        7.30642        2.58761
H          7.03580        5.77518        3.54400
H          8.05517        5.87274        2.07349
H          6.19743        3.85155       -0.91264
H          7.92144        4.14438       -1.34242
H          7.48364        3.89030        0.36800
C         -2.33518        0.72645        0.00960
C         -3.03251       -0.30193        0.57277
C         -2.26122       -1.43569        0.38304
C         -1.12161       -1.04232       -0.26832
N         -1.20430        0.28332       -0.52546
C          0.00792       -1.94502       -0.72848
N          1.30265       -1.70366       -0.03900
C          1.97006       -2.87562        0.57784
H         -3.98840       -0.23723        1.07553
H         -2.65111        1.77867       -0.03423
H         -2.49870       -2.44068        0.71382
H         -0.34936       -2.97621       -0.55056
H          0.14241       -1.82651       -1.82549
C          2.05570       -4.10557       -0.34979
C          3.42061       -2.49940        0.86421
C          1.25712       -3.18341        1.90250
H          2.62059       -3.84727       -1.27587
H          2.61212       -4.91855        0.16439
H          1.07913       -4.52170       -0.64073
H          3.39443       -1.59621        1.43004
H          3.95933       -3.27819        1.44230
H          3.99488       -2.28149       -0.06515
H          1.29868       -2.28733        2.56528
H          0.18983       -3.42157        1.72110
H          1.74097       -4.03419        2.42806
