110
speciation2002.ct
Na         1.11172       -0.05644       -0.02932
Mg         1.09366       -2.35809       -5.40246
C         -0.94361        1.77917        1.30720
C          1.01307        1.74605        2.61748
O          0.33046        1.18797        1.50751
C         -0.85869        3.23986        0.85047
C          2.28550        0.96903        2.91484
H         -1.45612        1.19928        0.51588
H         -1.59100        1.67633        2.20881
H          1.31113        2.79794        2.41364
H          0.38195        1.68840        3.53452
H          2.98190        1.01805        2.06130
H          2.79568        1.41918        3.79338
H          2.05092       -0.09252        3.12764
H         -0.17455        3.32939       -0.01861
H         -1.86679        3.60308        0.55858
H         -0.49838        3.89506        1.67164
H          1.43032       -3.74858       -7.61161
C          1.44674       -5.23284       -6.00304
C          1.81082       -3.86566       -6.57486
C         -0.06608       -5.46628       -5.92040
H          1.89340       -6.01633       -6.65257
H          1.89145       -5.32823       -4.98838
H         -0.52065       -5.39398       -6.92993
H         -0.23488       -6.49522       -5.53174
C         -0.75717       -4.49031       -4.97253
H          2.91710       -3.77009       -6.58483
H         -0.30721       -4.58182       -3.96410
H         -0.66296       -3.44811       -5.33793
H         -1.83760       -4.73233       -4.90319
C          0.11759        0.35977       -4.70230
C         -0.35859        1.13718       -3.67018
C         -0.37464        0.33712       -2.54887
C          0.08689       -0.90213       -2.94409
N          0.39409       -0.88747       -4.25880
C          0.25494       -2.11416       -2.09041
N         -0.11766       -1.86768       -0.68201
C          0.12232       -3.01254        0.23647
H         -0.66529        2.17089       -3.72922
H          0.25052        0.67596       -5.72527
H         -0.69734        0.63159       -1.56422
H          1.31763       -2.40560       -2.16838
H         -0.39131       -2.90234       -2.51372
C          1.62126       -3.37921        0.31775
C         -0.33992       -2.58452        1.63930
C         -0.69387       -4.26130       -0.17500
H          2.22189       -2.49308        0.61229
H          1.78141       -4.17811        1.07469
H          2.00657       -3.77644       -0.64228
H         -1.41766       -2.32135        1.63003
H         -0.19472       -3.40814        2.37336
H          0.23182       -1.69938        1.98891
H         -1.78030       -4.03535       -0.18836
H         -0.40049       -4.64322       -1.17319
H         -0.52135       -5.09079        0.54563
Na        -2.44775       -1.45825       -0.54088
Mg        -7.64339       -0.21731       -3.72950
C          3.48911        1.79194       -0.48518
C          3.79946       -0.35458       -1.48458
O          3.16267        0.39907       -0.46148
C          3.35153        2.50427       -1.84220
C          5.31213       -0.48633       -1.26145
H          2.79130        2.30709        0.20320
H          4.50423        1.95722       -0.05987
H          3.38413       -1.38073       -1.45868
H          3.56934        0.03311       -2.49650
H          5.52322       -1.00403       -0.30490
H          5.75976       -1.08079       -2.09160
H          5.81847        0.50185       -1.25940
H          2.32846        2.35735       -2.24498
H          3.53219        3.59032       -1.70161
H          4.10706        2.14862       -2.57085
H         -9.83890        0.98331       -3.10668
C        -10.41333       -1.08329       -2.94898
C         -9.66626        0.03801       -3.66322
C        -10.23023       -2.44572       -3.62327
H        -10.06048       -1.13961       -1.89658
H        -11.49697       -0.83224       -2.93879
H        -10.83562       -3.19143       -3.06405
H        -10.60579       -2.40439       -4.66808
C         -8.77363       -2.90592       -3.61805
H        -10.03544        0.16761       -4.70262
H         -8.14228       -2.21570       -4.21249
H         -8.38952       -2.95416       -2.57663
H         -8.70303       -3.91544       -4.07227
C         -4.86507       -0.02705       -4.77692
C         -3.55664       -0.34816       -4.49566
C         -3.56263       -1.00902       -3.28500
C         -4.87933       -1.05662       -2.86824
N         -5.67009       -0.46636       -3.79416
C         -5.38256       -1.68827       -1.58892
N         -4.77785       -1.04881       -0.39974
C         -5.19049       -1.57245        0.92296
H         -2.69603       -0.12070       -5.10775
H         -5.21138        0.50387       -5.65201
H         -2.70224       -1.40391       -2.77221
H         -5.11174       -2.76301       -1.62539
H         -6.48446       -1.58432       -1.56717
C         -4.81550       -3.06077        1.08688
C         -4.42751       -0.76188        1.98597
C         -6.70307       -1.38829        1.16202
H         -3.73016       -3.20980        0.91578
H         -5.05432       -3.40939        2.11557
H         -5.38131       -3.70622        0.38463
H         -4.67438        0.31832        1.90411
H         -4.68784       -1.10423        3.01161
H         -3.33102       -0.87308        1.85072
H         -6.98773       -0.32048        1.05258
H         -7.30524       -1.99515        0.45567
H         -6.97426       -1.72090        2.18814
