83
speciation571.ct
Na         4.51158        3.73270        3.46188
Mg         4.33120        3.86470       -2.56177
C          5.88080        5.82760        5.06285
C          7.44819        4.54722        3.87210
O          6.15208        4.58516        4.43969
C          5.71062        6.97898        4.07094
C          7.75602        3.14022        3.39101
H          4.93296        5.70967        5.62823
H          6.65180        6.07284        5.82926
H          7.53680        5.23666        3.00671
H          8.21434        4.79564        4.64284
H          7.04085        2.85412        2.59486
H          8.78913        3.10549        2.98179
H          7.67855        2.41953        4.23187
H          4.94759        6.71453        3.31046
H          5.38205        7.88858        4.61660
H          6.67020        7.21973        3.56884
C          1.81484        2.25232        3.11985
C          0.96799        1.51695        2.31608
C          1.58009        1.42395        1.08447
C          2.76718        2.13351        1.18022
N          2.92271        2.61997        2.43803
C          3.74283        2.35534        0.04889
N          3.14718        2.97876       -1.16740
C          2.43425        4.27645       -0.96494
H          0.00793        1.09613        2.59650
H          1.62288        2.50796        4.15686
H          1.19120        0.91653        0.21106
H          4.57955        2.95808        0.43332
H          4.09810        1.33946       -0.19808
C          3.43747        5.34616       -0.48662
C          1.85143        4.66804       -2.30510
C          1.19364        4.25506       -0.04153
H          4.32761        5.38325       -1.14963
H          2.96669        6.34905       -0.47239
H          3.78677        5.11729        0.54167
H          1.14870        3.88746       -2.67706
H          1.35162        5.65719       -2.29404
H          2.65922        4.74874       -2.98316
H          0.48164        3.46221       -0.36465
H          1.43173        4.16744        1.02601
H          0.65902        5.22757       -0.11030
Na         4.33709        2.55564       -3.17012
C          6.68925        1.54096       -1.71367
C          7.58862        2.78239       -3.50864
O          6.47524        2.02627       -3.02877
C          7.04420        2.62558       -0.68214
C          8.84825        1.92017       -3.72587
H          5.74774        1.06300       -1.42310
H          7.41393        0.70179       -1.68758
H          7.35508        3.21407       -4.48541
H          7.81230        3.65386       -2.86587
H          8.67806        1.17055       -4.52740
H          9.69823        2.57271       -4.03171
H          9.17327        1.39412       -2.80657
H          6.34473        3.48279       -0.76972
H          6.99687        2.19853        0.33789
H          8.07893        3.00041       -0.82360
C          5.35139        6.26353       -4.20631
C          5.04220        6.96431       -5.35918
C          4.03582        6.26914       -5.99058
C          3.78070        5.17221       -5.19774
N          4.56411        5.17750       -4.09829
C          2.77029        4.09911       -5.49669
N          3.39553        2.78183       -5.29336
C          4.18417        2.26501       -6.44539
H          5.48313        7.89130       -5.69811
H          6.08399        6.55469       -3.46956
H          3.53379        6.53523       -6.91606
H          2.32510        4.23485       -6.50062
H          1.89298        4.16533       -4.83803
C          5.33154        3.21641       -6.83572
C          4.77226        0.91701       -6.01409
C          3.30686        2.03021       -7.70013
H          5.92146        3.47928       -5.95102
H          5.99688        2.75828       -7.59563
H          4.94637        4.15407       -7.28093
H          3.95451        0.20409       -5.76996
H          5.39195        0.47900       -6.82556
H          5.40631        1.04169       -5.11584
H          2.46073        1.34916       -7.47492
H          2.90010        2.97350       -8.11857
H          3.91736        1.57973       -8.51342
