96
speciation1045.ct
Na         0.67626        0.06300        0.64417
Mg        -2.89289       -0.50639       -1.49383
C          3.44025        1.33057        0.84766
C          1.70898        2.95923        0.70591
O          2.13532        1.64630        0.36613
C          3.62443        1.47967        2.36366
C          2.48078        4.06785       -0.03298
H          3.63182        0.27472        0.58088
H          4.22892        1.89280        0.30053
H          0.64398        3.05748        0.41860
H          1.74050        3.12975        1.79871
H          2.31117        4.00704       -1.12854
H          2.12467        5.05862        0.32335
H          3.57158        4.02861        0.16742
H          2.80388        0.96260        2.89518
H          4.59802        1.04275        2.67045
H          3.64108        2.54610        2.66866
H         -2.45818       -2.45604        0.87579
C         -3.80217       -1.29864        2.16156
C         -2.82721       -1.42219        0.91840
C         -5.30350       -1.64172        1.88672
H         -3.42909       -1.77244        3.09284
H         -3.76855       -0.23734        2.48620
H         -5.93666       -1.07674        2.60500
H         -5.61568       -1.36434        0.86445
C         -5.70553       -3.08575        2.04091
H         -1.97543       -0.78845        1.22573
H         -5.11889       -3.72384        1.35682
H         -5.58415       -3.38865        3.09992
H         -6.78658       -3.15581        1.77566
C         -5.31479        1.32297        1.33864
C         -4.68899        2.52878        1.63819
C         -3.49650        2.57825        0.95810
C         -3.38491        1.41245        0.23874
N         -4.55329        0.60844        0.47409
C         -2.08852        1.22911       -0.83799
N         -1.13057        0.00941       -0.85843
C         -0.22162       -0.41558       -2.01603
H         -5.08640        3.30783        2.27657
H         -6.28312        1.02862        1.69095
H         -2.79992        3.40849        0.94287
H         -2.53138        1.32921       -1.86206
H         -1.46006        2.13921       -0.75457
C          0.54479        0.69898       -2.78068
C          0.85258       -1.44287       -1.51960
C         -0.96061       -1.18882       -3.09796
H          1.24865        1.27752       -2.15491
H          1.19052        0.23116       -3.58589
H         -0.13205        1.38314       -3.34627
H          0.36140       -2.28646       -1.00083
H          1.42651       -1.87411       -2.37524
H          1.62419       -0.98945       -0.87817
H         -1.36666       -2.08979       -2.64709
H         -1.65033       -0.48408       -3.55836
H         -0.27732       -1.56115       -3.90816
Mg        -4.11582       -0.90637       -0.74001
C          0.36129       -1.91920        2.87018
C          2.63087       -1.98890        2.19042
O          1.27487       -1.73222        1.79845
C          0.63088       -1.04611        4.09920
C          2.89582       -3.43323        2.66636
H         -0.62282       -1.63777        2.50337
H          0.24280       -2.99134        3.13023
H          3.28845       -1.83421        1.31284
H          2.96563       -1.28097        2.96963
H          2.73690       -4.16095        1.84347
H          3.94929       -3.51988        3.01108
H          2.26697       -3.72332        3.53271
H          0.73209        0.01565        3.79293
H         -0.21638       -1.13801        4.80915
H          1.54468       -1.37429        4.63569
C         -3.42887       -3.66221       -1.47917
C         -3.19681       -4.55160       -2.51010
C         -3.32400       -3.83446       -3.67625
C         -3.63655       -2.55634       -3.28953
N         -3.67835       -2.42119       -1.95412
C         -3.93902       -1.43217       -4.16676
N         -4.37782       -0.36468       -3.25503
C         -5.89197       -0.36099       -3.17170
H         -2.98025       -5.60807       -2.42207
H         -3.42929       -3.92931       -0.43451
H         -3.22306       -4.21335       -4.68533
H         -4.69353       -1.78114       -4.88621
H         -3.10243       -1.12676       -4.81701
C         -6.47156       -1.70415       -2.63822
C         -6.35306        0.74478       -2.23551
C         -6.55322       -0.04617       -4.54917
H         -6.09322       -1.93311       -1.62032
H         -7.57976       -1.66527       -2.56957
H         -6.24150       -2.56198       -3.30673
H         -5.99821        1.74078       -2.56983
H         -7.46477        0.75349       -2.15214
H         -5.99324        0.53264       -1.24205
H         -6.16966        0.91220       -4.95170
H         -6.42549       -0.82308       -5.32621
H         -7.65734        0.03370       -4.43283
