68
speciation20.ct
Na         3.96889       -2.12717        1.62337
Mg         2.94622        2.03822       -1.79528
C          4.37475       -2.90837        4.73671
C          2.21736       -3.37316        3.89808
O          3.35522       -2.53340        3.82355
C          4.91359       -4.33544        4.56952
C          1.19771       -2.95868        2.84599
H          5.22050       -2.20760        4.57793
H          4.03332       -2.74287        5.78292
H          2.46603       -4.43225        3.67884
H          1.73751       -3.27813        4.89688
H          1.62638       -3.08284        1.82911
H          0.29873       -3.60749        2.92595
H          0.89418       -1.90159        2.99110
H          5.22463       -4.51189        3.51948
H          5.79092       -4.47420        5.23597
H          4.16078       -5.09225        4.87353
C          2.05375       -0.13710       -3.91979
C          2.00914       -1.50045       -4.17373
C          2.40193       -2.12200       -3.01579
C          2.66721       -1.10673       -2.11598
N          2.45843        0.12292       -2.64654
C          3.16108       -1.34239       -0.73543
N          4.59578       -1.71219       -0.62422
C          5.59625       -0.78418       -1.18872
H          1.74188       -2.00623       -5.09442
H          1.83801        0.62344       -4.66517
H          2.50537       -3.19070       -2.85328
H          2.54646       -2.16167       -0.30649
H          2.90371       -0.48272       -0.08980
C          5.41329        0.58003       -0.54788
C          6.99269       -1.37486       -0.90460
C          5.54492       -0.64792       -2.73873
H          5.74543        0.55350        0.51327
H          4.36306        0.92147       -0.53906
H          5.91930        1.33808       -1.16820
H          7.07949       -2.37545       -1.38973
H          7.79749       -0.73437       -1.32828
H          7.17557       -1.51010        0.17923
H          5.59227       -1.63560       -3.24241
H          4.70042       -0.07946       -3.12662
H          6.40723       -0.04082       -3.09223
Na         4.86460       -3.60119       -1.58731
C          0.03480        5.25754        1.62492
C          0.06155        3.88203        1.53700
C          0.89796        3.54854        0.48878
C          1.37028        4.67509       -0.03802
N          0.86349        5.81039        0.63358
C          2.32695        4.74150       -1.18968
N          3.53361        3.91831       -0.95679
C          4.54988        4.50455        0.00640
H         -0.47527        3.19497        2.17629
H         -0.53173        5.83167        2.34684
H          1.14771        2.55103        0.15428
H          2.57030        5.79207       -1.44417
H          1.81077        4.33632       -2.08235
C          4.11161        4.39596        1.48628
C          5.88661        3.76229       -0.11146
C          4.87560        5.98794       -0.30558
H          3.93971        3.33718        1.77437
H          4.90844        4.80114        2.15086
H          3.20439        4.98444        1.70478
H          6.22511        3.69308       -1.16776
H          6.68975        4.25531        0.48006
H          5.79508        2.78730        0.36626
H          5.21831        6.10293       -1.35659
H          4.01609        6.65901       -0.11054
H          5.69177        6.35591        0.35812
