110
speciation2361.ct
Na         0.95701       -0.04815        0.07638
Mg         1.98869        4.25885       -1.11297
C         -1.96583        1.17362        0.45269
C         -1.93236       -1.10954        0.81503
O         -1.36299       -0.04815        0.07638
C         -1.34407        2.32620       -0.32281
C         -1.27685       -2.42459        0.42004
H         -3.04693        1.15261        0.18160
H         -1.85081        1.37136        1.54283
H         -1.80285       -0.96157        1.91125
H         -3.01466       -1.20136        0.56605
H         -0.20290       -2.41677        0.69212
H         -1.77843       -3.26208        0.95247
H         -1.37974       -2.58984       -0.67491
H         -1.42381        2.14296       -1.41542
H         -1.88422        3.26686       -0.08083
H         -0.27558        2.44532       -0.04664
H          3.56944        6.16502       -0.32835
C          4.93141        4.53120        0.10694
C          3.51022        5.13156        0.06306
C          5.60677        4.38781       -1.26976
H          5.57047        5.16883        0.75409
H          4.90975        3.53579        0.58566
H          6.60744        3.92268       -1.11501
H          5.01904        3.71379       -1.92810
C          5.82115        5.72827       -1.96951
H          3.10920        5.18721        1.09631
H          4.84989        6.20017       -2.22098
H          6.40819        6.41047       -1.31813
H          6.38251        5.57183       -2.91493
C          1.82137        2.42690       -3.33009
C          2.24354        1.22582       -3.84744
C          3.01718        0.62456       -2.88060
C          3.01934        1.47861       -1.79234
N          2.31048        2.59535       -2.08253
C          3.72673        1.24538       -0.49510
N          3.32701       -0.04815        0.07638
C          3.87983       -0.37683        1.41415
H          2.02436        0.84004       -4.83440
H          1.21852        3.16115       -3.83885
H          3.51437       -0.32832       -2.96278
H          3.42373        2.06134        0.18090
H          4.81889        1.25986       -0.68505
C          3.39754        0.61766        2.48979
C          3.37971       -1.78268        1.79026
C          5.42527       -0.41169        1.39761
H          2.28727        0.64950        2.52078
H          3.76815        0.30958        3.49219
H          3.78312        1.64046        2.30695
H          3.72353       -2.53121        1.04061
H          3.76747       -2.09077        2.78356
H          2.26927       -1.81007        1.82012
H          5.79577       -1.14153        0.64489
H          5.85920        0.58377        1.17226
H          5.81609       -0.71598        2.39373
Na         4.11700       -1.79596       -1.31573
Mg         7.76776        0.06545       -4.47135
C          9.49139        2.23091       -4.60679
C          7.53467        2.51313       -5.88817
O          8.50041        1.60237       -5.40124
C          8.96566        2.87711       -3.31906
C          6.48251        1.76060       -6.69099
H         10.20985        1.43702       -4.31243
H         10.07726        2.95906       -5.20934
H          6.99898        3.03953       -5.07315
H          8.02119        3.24501       -6.57144
H          5.93579        1.05346       -6.03106
H          5.75498        2.48418       -7.11783
H          6.95805        1.19685       -7.52054
H          8.36686        2.14684       -2.73570
H          9.82636        3.21202       -2.70263
H          8.35491        3.77633       -3.53610
H          0.82036        6.15277       -2.52336
C         -0.47478        6.41937       -0.81613
C          0.35848        5.52411       -1.73185
C          0.38139        7.44098       -0.06413
H         -1.22760        6.96129       -1.43644
H         -1.02205        5.78671       -0.08372
H          1.10943        6.89642        0.57320
H          0.93668        8.08065       -0.78469
C         -0.48325        8.33658        0.82375
H         -0.34365        4.82243       -2.23156
H         -1.18102        8.94314        0.20554
H         -1.07434        7.72336        1.53691
H          0.16496        9.02635        1.40344
C          4.63298       -4.84616       -2.50764
C          5.11884       -5.60326       -3.55370
C          5.71398       -4.72278       -4.43339
C          5.57184       -3.46435       -3.87373
N          4.90699       -3.54377       -2.70785
C          6.08746       -2.18205       -4.44582
N          7.01623       -1.51109       -3.51750
C          8.26266       -2.25361       -3.13427
H          5.03653       -6.67631       -3.66491
H          4.08305       -5.22367       -1.65588
H          6.20055       -4.97362       -5.36645
H          6.57796       -2.35507       -5.42590
H          5.22687       -1.50639       -4.62954
C          9.08499       -2.66134       -4.37710
C          9.10516       -1.30164       -2.27656
C          8.01426       -3.51446       -2.25872
H          9.33114       -1.77121       -4.99309
H         10.03313       -3.15661       -4.07375
H          8.53203       -3.38975       -5.00680
H          8.54424       -1.01330       -1.36096
H         10.05460       -1.79059       -1.96237
H          9.35926       -0.38347       -2.84241
H          7.34606       -3.28258       -1.40243
H          7.61631       -4.36888       -2.82457
H          8.97145       -3.90958       -1.85573
