95
speciation1544.ct
Na        -0.06190        4.47265       -6.57760
Li        -0.37929       -2.43483       -2.73911
C         -1.19636       -5.18314       -2.83605
C         -0.36533       -4.20051       -4.85922
O         -1.03993       -3.99382       -3.61832
C          0.04334       -6.07050       -2.66028
C         -1.21059       -4.97058       -5.87498
H         -1.52570       -4.85966       -1.82707
H         -2.03040       -5.78169       -3.25266
H         -0.15948       -3.20756       -5.30672
H          0.63587       -4.65868       -4.72595
H         -2.15482       -4.42631       -6.07759
H         -0.64656       -5.06874       -6.82809
H         -1.44129       -5.99243       -5.51299
H          0.87266       -5.52097       -2.19823
H         -0.21383       -6.91375       -1.98903
H          0.38280       -6.51521       -3.61936
H          1.88396       -3.72291       -1.84031
C          2.80714       -1.83911       -1.75413
C          1.82769       -2.80092       -2.43908
C          4.25935       -2.32936       -1.71884
H          2.85117       -0.90242       -2.31256
H          2.45111       -1.66300       -0.71553
H          4.33350       -3.30589       -1.19625
H          4.63418       -2.44679       -2.75989
C          5.13690       -1.30361       -0.99193
H          2.19219       -3.01063       -3.46791
H          5.07179       -0.30996       -1.48791
H          4.80502       -1.19455        0.06326
H          6.19768       -1.62942       -0.99844
C          2.09198        2.98993       -8.36541
C          3.43915        3.00924       -8.67039
C          3.99754        4.01735       -7.91330
C          2.95940        4.57313       -7.17857
N          1.80529        3.94425       -7.45748
C          3.06984        5.73791       -6.26008
N          2.61974        5.40061       -4.89998
C          2.52069        6.55482       -3.93042
H          3.95684        2.37044       -9.37353
H          1.35913        2.31862       -8.79582
H          5.03516        4.32606       -7.91106
H          4.12109        6.08594       -6.23970
H          2.42694        6.52270       -6.69926
C          1.52465        7.62262       -4.43521
C          2.02706        6.14844       -2.53210
C          3.91027        7.18017       -3.70362
H          0.52529        7.16218       -4.60280
H          1.40856        8.43297       -3.68281
H          1.86126        8.10719       -5.36953
H          2.69492        5.38900       -2.08530
H          2.05158        7.00894       -1.83042
H          0.95646        5.87566       -2.54246
H          4.61197        6.41041       -3.31225
H          4.32455        7.61700       -4.63021
H          3.84691        7.99986       -2.95341
Na         2.33439        3.33785       -4.58864
Li         1.81783        3.49139       -4.70628
H         -1.41403       -2.69516       -0.13787
C         -3.00158       -1.42448       -0.93027
C         -1.51274       -1.85426       -0.85536
C         -3.66357       -1.03087        0.42258
H         -3.09597       -0.55986       -1.62137
H         -3.59175       -2.26569       -1.35062
H         -4.72964       -0.77682        0.22042
H         -3.65517       -1.88925        1.12836
C         -3.04475        0.18708        1.11815
H         -0.94387       -0.98591       -0.46893
H         -2.00933       -0.02748        1.45019
H         -3.04897        1.07086        0.44598
H         -3.64477        0.44360        2.02175
C         -2.14606       -1.06196       -4.47938
C         -2.36986       -0.05593       -5.39238
C         -1.16807        0.59514       -5.55790
C         -0.26528       -0.04825       -4.73477
N         -0.85846       -1.06822       -4.08120
C          1.15566        0.34703       -4.54581
N          1.26766        1.66970       -3.89831
C          0.72097        1.92403       -2.53916
H         -3.30876        0.17978       -5.87434
H         -2.89211       -1.75905       -4.11622
H         -0.97586        1.44618       -6.19404
H          1.68590        0.33688       -5.52114
H          1.63122       -0.41501       -3.91774
C          1.27150        0.97091       -1.48348
C          1.22512        3.28234       -2.20851
C         -0.81195        1.96825       -2.49766
H          2.38312        1.00902       -1.47962
H          0.93915        1.29384       -0.47184
H          0.88590       -0.04831       -1.65300
H          0.81314        3.92170       -3.00900
H          0.88218        3.64210       -1.21916
H          2.33776        3.27752       -2.24846
H         -1.21023        2.70137       -3.23388
H         -1.28226        0.98830       -2.67441
H         -1.14720        2.27719       -1.48397
