110
speciation2458.ct
Na         1.73489        0.50945        2.79785
Mg         2.21000        4.57086       -0.64022
C          0.71982        0.32242        5.64187
C         -0.96811        1.00101        4.24313
O          0.44134        1.00742        4.43085
C          2.19388        0.40857        5.99887
C         -1.37732        1.79328        3.01532
H          0.18007        0.80769        6.49032
H          0.42476       -0.74922        5.57447
H         -1.37122       -0.03397        4.15947
H         -1.45688        1.52331        5.10017
H         -1.03500        1.28690        2.09071
H         -2.48759        1.87228        2.98829
H         -0.95625        2.81623        3.07470
H          2.50865        1.46996        6.08394
H          2.35387       -0.08640        6.98249
H          2.80729       -0.10806        5.23384
H          4.35613        4.50221       -2.51494
C          3.91736        6.53884       -2.07203
C          3.45043        5.13973       -2.39547
C          4.66944        6.48362       -0.74566
H          4.57561        6.93998       -2.87759
H          3.01639        7.18113       -1.98567
H          4.02058        6.00182        0.01750
H          5.58992        5.86796       -0.86122
C          5.04968        7.87385       -0.26460
H          2.93807        5.14207       -3.38283
H          5.73288        8.36060       -0.98955
H          4.14278        8.50250       -0.14984
H          5.55403        7.78621        0.72008
C          3.80118       -1.16601        0.95783
C          4.69687       -1.08459       -0.09522
C          4.69542        0.22395       -0.51318
C          3.78957        0.87926        0.29714
N          3.23617        0.03620        1.19994
C          3.44449        2.32218        0.19031
N          2.91780        2.70950       -1.13158
C          1.70203        2.03307       -1.67793
H          5.28831       -1.88782       -0.51625
H          3.57380       -2.06429        1.51251
H          5.27632        0.64922       -1.32358
H          2.72723        2.60599        0.98591
H          4.36800        2.91394        0.36907
C          0.58617        2.10235       -0.67039
C          1.21147        2.81649       -2.91862
C          1.95322        0.58177       -2.12510
H          0.51539        3.17662       -0.55761
H         -0.37990        1.70912       -1.04804
H          0.82955        1.61745        0.29642
H          1.96979        2.81909       -3.70900
H          0.28014        2.36193       -3.32743
H          0.97264        3.87378       -2.67152
H          2.82047        0.54340       -2.81775
H          2.11420       -0.10407       -1.27707
H          1.06355        0.18323       -2.65944
Na         1.97564       10.79011        1.92036
Mg         4.26460        2.44330       -2.57218
C          3.07326       12.89732        0.05862
C          3.23899       13.51202        2.27976
O          2.50893       12.71163        1.34686
C          2.28764       12.08338       -0.96209
C          2.62560       13.37793        3.66628
H          2.97386       13.95940       -0.24818
H          4.14194       12.58422        0.02193
H          4.31209       13.21976        2.32964
H          3.13895       14.57993        2.00555
H          2.79619       12.36713        4.05460
H          3.10927       14.08960        4.36445
H          1.53302       13.58483        3.63015
H          1.21240       12.35714       -0.91748
H          2.67001       12.30826       -1.98126
H          2.40454       10.99890       -0.76406
H          6.06977        3.16710       -4.29454
C          5.15972        1.48151       -5.32052
C          5.64525        2.17040       -4.04898
C          4.07077        2.29215       -6.02486
H          6.02440        1.36030       -6.00909
H          4.76744        0.47661       -5.05427
H          3.20740        2.40454       -5.35405
H          4.45258        3.30294       -6.28697
C          3.59503        1.58987       -7.29175
H          6.44419        1.55141       -3.58917
H          4.43503        1.48241       -8.00959
H          3.19199        0.58429       -7.04432
H          2.78900        2.18664       -7.76884
C         -0.40687        4.75748        1.06514
C         -1.25174        5.51048        1.81999
C         -0.68108        6.73662        1.91755
C          0.52816        6.67632        1.24228
N          0.69745        5.45166        0.65389
C          1.47938        7.83346        1.19120
N          1.33046        8.74930        2.39317
C          1.86815        8.31215        3.69341
H         -2.18580        5.17708        2.25226
H         -0.67623        3.74143        0.87404
H         -1.09714        7.57244        2.45850
H          2.51782        7.50049        1.06362
H          1.21556        8.42175        0.29624
C          3.35011        7.88367        3.60207
C          1.79708        9.51188        4.65178
C          1.04734        7.17939        4.34841
H          3.96162        8.70702        3.17778
H          3.74315        7.63788        4.61405
H          3.46877        6.97622        2.97928
H          0.74077        9.86889        4.76411
H          2.18369        9.26290        5.66081
H          2.39999       10.32912        4.24764
H         -0.01286        7.49034        4.46906
H          1.10777        6.23911        3.76989
H          1.43010        6.94916        5.36713
