110
speciation2602.ct
Na         3.22946        0.09535        1.43488
Mg         3.02855       -0.19171       -1.72862
C          0.93347        1.06863       -3.63627
C          0.88534       -1.21544       -3.86527
O          1.75195       -0.10831       -3.51730
C          1.68255        2.36080       -3.50522
C          0.47707       -1.34056       -5.36004
H          0.53517        1.16882       -4.66411
H          0.08867        1.06791       -2.91282
H          1.37377       -2.16867       -3.57866
H         -0.10148       -1.14287       -3.35236
H          1.34280       -1.54133       -6.01634
H         -0.25037       -2.17930       -5.46459
H         -0.08387       -0.46854       -5.75968
H          2.57195        2.35994       -4.16838
H          1.02017        3.21083       -3.76365
H          1.94591        2.48467       -2.46393
H          3.55808        2.81340       -1.29777
C          5.28990        2.75392       -2.52513
C          4.30919        2.02912       -1.52452
C          5.86151        4.14125       -2.06551
H          6.16372        2.10491       -2.70692
H          4.76349        2.92641       -3.48667
H          5.05299        4.88389       -1.89141
H          6.43592        4.02499       -1.12298
C          6.81879        4.74538       -3.12050
H          4.84722        1.92400       -0.56092
H          7.64621        4.04258       -3.35722
H          6.27923        4.98927       -4.06177
H          7.28062        5.69018       -2.74903
C          2.32510        2.50141        3.25982
C          1.28445        3.40024        3.12272
C          0.60509        3.05418        1.96735
C          1.25614        1.95000        1.45589
N          2.30003        1.63820        2.23841
C          0.88980        1.18420        0.19985
N          1.71492       -0.04806        0.02856
C          0.98778       -1.27284        0.47078
H          1.05536        4.21657        3.79118
H          3.06334        2.47988        4.04731
H         -0.26514        3.54688        1.55571
H          1.01066        1.85143       -0.66123
H         -0.19281        0.94764        0.24684
C         -0.07224       -1.67201       -0.55739
C          2.02410       -2.32778        0.50701
C          0.36675       -1.23239        1.88388
H          0.45522       -1.74500       -1.49970
H         -0.50100       -2.67484       -0.35325
H         -0.89796       -0.94020       -0.64227
H          2.82709       -2.11512        1.24416
H          1.61917       -3.34479        0.68858
H          2.40431       -2.23161       -0.50504
H          1.13154       -0.98083        2.64797
H         -0.48356       -0.52979        1.95675
H         -0.02874       -2.24710        2.13290
Na         5.56330       -5.93428       -3.85167
Mg         5.36212       -1.75167        0.52397
C          7.73056       -0.17443        1.27661
C          6.02644        0.41827        2.82086
O          6.34089       -0.25625        1.58100
C          8.67408       -0.89507        2.25315
C          6.29510        1.95341        2.82689
H          7.89546       -0.64843        0.29733
H          8.03553        0.88024        1.12846
H          4.95147        0.28952        3.05069
H          6.55591       -0.03421        3.68496
H          5.67387        2.47987        2.07381
H          6.04995        2.37898        3.82694
H          7.36030        2.22408        2.65945
H          8.49163       -1.98857        2.23223
H          9.72033       -0.70602        1.92981
H          8.60339       -0.52750        3.29587
H          6.22966       -2.91284        2.92479
C          5.34644       -4.74445        2.18332
C          5.33529       -3.19946        2.32953
C          5.33059       -5.50918        3.53749
H          4.45142       -5.05555        1.60694
H          6.25827       -5.03960        1.62406
H          6.20619       -5.22492        4.16195
H          4.40552       -5.26465        4.10478
C          5.37475       -7.03267        3.33255
H          4.44646       -2.91600        2.93386
H          4.51353       -7.37440        2.71989
H          6.31800       -7.33243        2.82767
H          5.32964       -7.56143        4.31167
C          2.56383       -6.11148       -3.54064
C          1.41237       -5.65785       -2.92168
C          1.80408       -4.60895       -2.10281
C          3.18636       -4.45681       -2.26272
N          3.66195       -5.39917       -3.15266
C          4.09778       -3.61621       -1.33273
N          4.52293       -2.14723       -1.51937
C          5.75969       -2.12359       -2.40769
H          0.42829       -6.09279       -3.00693
H          2.61349       -6.95877       -4.20672
H          1.13701       -4.08852       -1.44070
H          4.92876       -4.27366       -1.07860
H          3.72288       -3.77244       -0.32074
C          5.45940       -2.49234       -3.87947
C          6.37268       -0.72332       -2.41996
C          6.88719       -3.08726       -1.89441
H          4.72301       -1.79776       -4.32951
H          6.39655       -2.44043       -4.48384
H          5.09269       -3.52678       -3.98298
H          6.62301       -0.38611       -1.40369
H          7.31402       -0.71661       -3.02286
H          5.66981       -0.01453       -2.88236
H          7.08920       -2.91489       -0.81482
H          6.66804       -4.16375       -2.05950
H          7.83242       -2.95825       -2.45989
