110
speciation2259.ct
Na         2.21333       -2.92154       -0.59552
Mg        -2.52422        0.10485       -3.52490
C          3.19793       -2.30713        2.11213
C          4.93901       -3.67842        1.37222
O          3.62165       -3.18775        1.08764
C          4.04089       -1.02752        2.18057
C          5.47873       -4.59874        0.29513
H          2.16026       -2.01370        1.85727
H          3.13621       -2.81473        3.10314
H          5.69371       -2.86578        1.44054
H          4.92843       -4.25871        2.32487
H          5.67992       -4.02079       -0.63054
H          6.44587       -5.02862        0.64946
H          4.77096       -5.42549        0.09829
H          4.17076       -0.62589        1.15871
H          3.54816       -0.26827        2.81750
H          5.03948       -1.22062        2.62629
H         -4.66003       -0.06133       -5.23116
C         -4.45684       -2.16941       -4.79728
C         -3.83651       -0.77932       -5.03489
C         -5.40004       -2.19179       -3.58765
H         -5.03894       -2.46631       -5.69984
H         -3.64896       -2.91707       -4.65629
H         -4.83823       -1.90733       -2.67531
H         -6.22902       -1.46527       -3.73849
C         -6.00110       -3.58643       -3.39091
H         -3.22083       -0.84064       -5.95858
H         -6.60991       -3.87920       -4.27202
H         -5.19588       -4.33568       -3.23533
H         -6.66859       -3.60026       -2.50807
C         -0.42822       -4.11908        0.78152
C         -1.79282       -4.27774        0.93712
C         -2.37988       -3.64840       -0.12468
C         -1.35578       -3.12539       -0.88822
N         -0.12905       -3.40576       -0.33302
C         -1.64752       -2.27267       -2.09373
N         -2.29146       -0.97793       -1.72946
C         -1.47440       -0.07464       -0.87949
H         -2.31882       -4.77112        1.74363
H          0.30798       -4.49189        1.47829
H         -3.44312       -3.53690       -0.30345
H         -0.73606       -2.10983       -2.69411
H         -2.33708       -2.84763       -2.74640
C         -0.18852        0.29340       -1.65048
C         -2.35540        1.14837       -0.59125
C         -1.11698       -0.63938        0.53275
H         -0.43410        0.61398       -2.68175
H          0.40080        1.06880       -1.13319
H          0.47374       -0.59605       -1.75169
H         -3.21931        0.84983        0.04692
H         -1.78257        1.90863       -0.02020
H         -2.75701        1.59788       -1.51629
H         -1.96546       -1.22134        0.95505
H         -0.16405       -1.19913        0.52312
H         -0.91328        0.14429        1.29010
Na        -4.08640       -1.16099       -0.46847
Mg         6.74245        1.78112       -1.23011
C         -5.42704       -1.06835        2.14298
C         -6.35833       -2.63834        0.61209
O         -5.73634       -1.37869        0.78616
C         -4.65349       -2.14703        2.91961
C         -7.80692       -2.64098        1.10438
H         -4.79464       -0.15569        2.13160
H         -6.34640       -0.77998        2.69616
H         -6.38627       -2.83900       -0.47139
H         -5.77060       -3.47013        1.04442
H         -8.40253       -1.89021        0.54282
H         -8.24642       -3.64649        0.93953
H         -7.86590       -2.41570        2.18871
H         -3.73179       -2.42965        2.37259
H         -4.37266       -1.75686        3.92020
H         -5.27790       -3.04665        3.10068
H         -2.80697        2.94210       -3.69548
C         -1.82153        2.84232       -5.59039
C         -2.01484        2.30736       -4.15052
C         -0.69759        2.11864       -6.33836
H         -2.77158        2.73808       -6.15460
H         -1.56991        3.93190       -5.55355
H          0.26717        2.25417       -5.80082
H         -0.94140        1.03797       -6.38275
C         -0.53877        2.64972       -7.76775
H         -1.08066        2.56336       -3.60331
H         -1.48933        2.54102       -8.33267
H         -0.24398        3.72171       -7.76389
H          0.24984        2.07298       -8.29724
C          2.81778       -2.55693       -3.55243
C          3.47411       -2.02074       -4.63883
C          4.36834       -1.11492       -4.14494
C          4.20165       -1.09891       -2.77488
N          3.26184       -2.01940       -2.39734
C          4.98967       -0.18417       -1.87037
N          5.53561        1.01146       -2.56270
C          4.64099        2.15505       -2.91091
H          3.31922       -2.25509       -5.68159
H          2.04351       -3.30772       -3.60571
H          5.05628       -0.51221       -4.72326
H          4.43489        0.09093       -0.95938
H          5.86269       -0.78007       -1.52244
C          3.89604        2.67902       -1.67096
C          5.54008        3.27994       -3.46856
C          3.60279        1.82641       -4.00765
H          4.61182        2.97075       -0.87299
H          3.27885        3.56454       -1.94072
H          3.20309        1.90846       -1.27635
H          6.09868        2.92412       -4.36305
H          4.93827        4.16455       -3.77556
H          6.28163        3.61437       -2.71327
H          4.09359        1.50286       -4.94860
H          2.87319        1.06379       -3.67023
H          3.01552        2.73732       -4.26289
