81
speciation760.ct
Na         3.54379       -1.48286        0.92427
Mg         2.75984       -0.15721       -1.88970
C          1.67458        2.01984       -3.64853
C          0.44385       -0.03655       -3.75682
O          1.42235        0.74027       -3.06721
C          0.41329        2.86711       -3.95436
C          0.88861       -0.49442       -5.14561
H          2.25318        2.60727       -2.90775
H          2.29210        1.92348       -4.56491
H          0.21102       -0.93092       -3.15314
H         -0.53275        0.49200       -3.80475
H          1.78120       -1.14421       -5.06331
H          0.06648       -1.07372       -5.62017
H          1.11369        0.36727       -5.80600
H         -0.21982        2.98032       -3.04770
H          0.70920        3.87903       -4.30380
H         -0.19753        2.42730       -4.77233
H          4.43141       -4.03788       -8.59913
C          4.82689       -1.91322       -8.74833
C          4.17830       -3.10859       -8.04529
C          4.33676       -1.82178      -10.20557
H          4.57633       -0.98139       -8.19885
H          5.92943       -2.05205       -8.73973
H          4.58944       -2.76215      -10.73781
H          3.23358       -1.68609      -10.22556
C          4.98197       -0.65765      -10.96157
H          3.07299       -2.99776       -8.03565
H          4.71041        0.31141      -10.49421
H          6.08700       -0.76606      -10.97365
H          4.61914       -0.65639      -12.01243
C          5.62717        0.20800        2.61586
C          5.76717        1.56724        2.77671
C          4.74689        2.15932        2.04538
C          4.03101        1.12564        1.47738
N          4.58095       -0.04823        1.82061
C          2.81758        1.26339        0.56853
N          2.31547       -0.04195        0.06321
C          0.98284       -0.47726        0.55923
H          6.52413        2.07600        3.35440
H          6.26424       -0.56059        3.05441
H          4.56037        3.21642        1.93665
H          3.10466        1.88297       -0.30478
H          2.04837        1.82734        1.13264
C         -0.14924        0.49291        0.14916
C          0.68836       -1.85901       -0.05117
C          0.99307       -0.63244        2.10040
H         -0.20174        0.60505       -0.95061
H         -1.13128        0.10147        0.50304
H         -0.03235        1.49725        0.60265
H          1.47179       -2.58996        0.23586
H         -0.29458       -2.24497        0.29300
H          0.67216       -1.79645       -1.15448
H          1.77552       -1.35055        2.42232
H          1.17830        0.33246        2.61521
H          0.01429       -1.01917        2.46200
Mg         4.70797       -3.56696       -6.12932
C          5.90752       -5.09987       -3.84617
C          5.84893       -5.20479       -2.46769
C          5.08144       -4.14949       -2.03070
C          4.75898       -3.42110       -3.15900
N          5.22466       -4.01410       -4.26031
C          4.02460       -2.14265       -3.18875
N          4.55870       -1.20065       -2.19019
C          6.02889       -0.82741       -2.21620
H          6.29697       -5.96781       -1.84689
H          6.39280       -5.80509       -4.50561
H          4.82737       -3.90765       -1.00657
H          2.97033       -2.34863       -2.91155
H          4.02972       -1.69477       -4.20410
C          6.38186       -0.02383       -3.47254
C          6.31530       -0.00930       -0.95429
C          7.06012       -2.00658       -2.14102
H          5.76238        0.88809       -3.54916
H          7.45772        0.27100       -3.44816
H          6.23889       -0.65195       -4.37882
H          6.11136       -0.64734       -0.06955
H          7.38775        0.28738       -0.89847
H          5.68724        0.90014       -0.91435
H          6.92228       -2.62920       -1.23153
H          7.08750       -2.63007       -3.05366
H          8.10281       -1.62470       -2.07291
