110
speciation1890.ct
Na         0.88627        0.07697       -0.29128
Mg         0.25007        4.84115        4.39806
C          0.17557       -2.89625       -0.93010
C          0.49169       -2.42266        1.38151
O          0.79956       -2.05614        0.04629
C         -1.34599       -3.06893       -0.79943
C          1.11052       -3.76877        1.78523
H          0.36511       -2.45813       -1.91734
H          0.67662       -3.88657       -0.98326
H          0.92285       -1.65083        2.05013
H         -0.60006       -2.41017        1.57356
H          2.21667       -3.72814        1.69884
H          0.84086       -3.99764        2.83753
H          0.72921       -4.60275        1.15968
H         -1.83832       -2.07910       -0.74162
H         -1.73760       -3.61435       -1.68526
H         -1.61001       -3.67880        0.08992
H          0.31712        7.52724        3.72283
C          2.44442        7.22545        4.01333
C          0.98374        6.91981        4.36971
C          2.76150        6.91885        2.54946
H          2.63577        8.30925        4.19063
H          3.11426        6.64597        4.68377
H          2.57369        5.84725        2.34490
H          2.10750        7.53301        1.89191
C          4.22135        7.24057        2.22760
H          0.86354        7.29833        5.39849
H          4.43364        8.31727        2.40609
H          4.89993        6.62934        2.86019
H          4.42937        7.01289        1.16098
C          2.75575        3.42562        3.96986
C          3.39634        2.34912        3.40564
C          2.44443        1.58331        2.79726
C          1.23125        2.22693        3.00842
N          1.43266        3.36488        3.72880
C         -0.10579        1.75888        2.48829
N         -0.23031        1.70191        1.00344
C         -0.03493        3.00287        0.27696
H          4.46689        2.15399        3.44762
H          3.22485        4.22647        4.52360
H          2.60340        0.66335        2.24800
H         -0.89603        2.40986        2.90725
H         -0.29204        0.74494        2.89979
C          1.42719        3.52012        0.31286
C         -0.37179        2.77040       -1.20497
C         -0.97559        4.10718        0.81087
H          2.13908        2.73334       -0.00976
H          1.54907        4.40020       -0.35554
H          1.72852        3.90372        1.29667
H         -1.41528        2.41844       -1.33061
H         -0.24470        3.71074       -1.78848
H          0.30991        2.01893       -1.64298
H         -2.03544        3.78651        0.73593
H         -0.75046        4.36471        1.86565
H         -0.85155        5.04299        0.22328
Na        -2.56041        1.32399        0.79193
Mg        -6.29879        3.38291        2.85010
C          1.49488       -0.27230       -3.40208
C          3.26872        0.93898       -2.35999
O          1.99223        0.31993       -2.20192
C          2.42962       -1.32284       -4.03740
C          3.26633        2.12821       -3.33813
H          0.54493       -0.77024       -3.15606
H          1.20036        0.49543       -4.14625
H          3.60404        1.31298       -1.37328
H          4.03990        0.19504       -2.65611
H          2.59845        2.93300       -2.96927
H          4.29658        2.53344       -3.43646
H          2.94909        1.83139       -4.35956
H          2.72633       -2.09010       -3.29230
H          1.91624       -1.82647       -4.88410
H          3.34270       -0.85236       -4.46208
H         -2.41314        4.53979        3.90427
C         -2.59121        5.35458        5.89296
C         -1.85316        4.48626        4.86246
C         -1.94299        5.30470        7.28180
H         -2.63329        6.40511        5.53425
H         -3.63818        4.98606        5.99012
H         -2.54349        5.92453        7.98426
H         -1.92769        4.26112        7.66266
C         -0.53026        5.86056        7.25036
H         -1.88756        3.43082        5.20921
H          0.10450        5.25889        6.56549
H         -0.58366        6.91528        6.91616
H         -0.07587        5.83550        8.25985
C         -5.04921        5.28192        1.04086
C         -4.52372        5.46012       -0.22027
C         -4.61873        4.24484       -0.85678
C         -5.20406        3.36953        0.04124
N         -5.45991        4.00817        1.20461
C         -5.56203        1.94080       -0.28470
N         -4.89050        0.94608        0.58042
C         -5.08563       -0.46728        0.17266
H         -4.12958        6.37901       -0.63505
H         -5.13826        6.05230        1.79574
H         -4.31374        4.02897       -1.87324
H         -5.27518        1.78501       -1.34160
H         -6.66215        1.84898       -0.19163
C         -4.52137       -0.73165       -1.24247
C         -4.31163       -1.34323        1.17112
C         -6.57567       -0.87271        0.22598
H         -3.47745       -0.35970       -1.31703
H         -4.53093       -1.81850       -1.47306
H         -5.13064       -0.24243       -2.02965
H         -4.69772       -1.19202        2.20188
H         -4.41814       -2.42050        0.91423
H         -3.23078       -1.08838        1.16114
H         -6.98929       -0.70241        1.24311
H         -7.18362       -0.29867       -0.50309
H         -6.69661       -1.94832       -0.02740
