83
speciation308.ct
Na         1.13270        0.04562       -0.08464
Mg        -0.84400        1.75304        2.04239
C          0.36821        1.76483       -2.44853
C         -1.32041        0.15858       -1.91838
O          0.06397        0.49114       -1.88839
C         -0.49872        2.94356       -1.98379
C         -1.81988       -0.14205       -3.33848
H          1.41184        1.99727       -2.15863
H          0.37732        1.70365       -3.56164
H         -1.46738       -0.76559       -1.32183
H         -1.95196        0.92875       -1.42945
H         -1.27249       -1.00764       -3.76741
H         -2.90410       -0.38844       -3.31148
H         -1.69595        0.73305       -4.01101
H         -0.50886        2.99148       -0.87775
H         -0.08545        3.89245       -2.38325
H         -1.53628        2.86217       -2.37363
C         -3.84156        1.16553        2.21578
C         -4.56070       -0.01253        2.20628
C         -3.64429       -1.03602        2.07678
C         -2.40556       -0.42750        2.00851
N         -2.52855        0.89683        2.10097
C         -1.06946       -1.08980        1.87721
N          0.01858       -0.07193        1.87388
C          0.93428       -0.15250        3.04159
H         -5.63656       -0.11602        2.28956
H         -4.26443        2.15958        2.30325
H         -3.85225       -2.10119        2.05019
H         -1.03311       -1.67453        0.93621
H         -0.99446       -1.80523        2.71949
C          1.64267       -1.52314        3.16361
C          2.01167        0.90223        2.83661
C          0.17919        0.18709        4.34893
H          2.18624       -1.76594        2.22744
H          2.37740       -1.49662        3.99878
H          0.94815       -2.35375        3.39291
H          1.51671        1.86379        2.73361
H          2.73183        0.93521        3.68154
H          2.56943        0.72722        1.90806
H         -0.31234        1.18117        4.26369
H         -0.60223       -0.56194        4.58836
H          0.88295        0.22622        5.20893
Na        -3.16020        7.31037        1.29714
C          4.05736        0.96833       -0.53362
C          3.89833       -1.41769       -0.41754
O          3.29061       -0.16459       -0.12997
C          4.48066        0.97312       -2.00949
C          5.18426       -1.67200        0.38974
H          3.42783        1.86614       -0.36647
H          4.93990        1.10910        0.12955
H          3.18172       -2.21603       -0.13854
H          4.07882       -1.54351       -1.50297
H          4.96835       -1.69446        1.47873
H          5.61627       -2.65287        0.09570
H          5.96173       -0.90506        0.19133
H          3.59322        0.83906       -2.66032
H          4.97028        1.93896       -2.25547
H          5.22489        0.17699       -2.22255
C          0.68308        4.33335        2.60110
C          0.57036        5.69320        2.40719
C         -0.63145        5.89706        1.78076
C         -1.22050        4.65308        1.62954
N         -0.40725        3.69416        2.11716
C         -2.57000        4.36142        1.03725
N         -3.04044        5.47661        0.19922
C         -4.37897        5.32027       -0.41233
H          1.28976        6.43895        2.70183
H          1.53286        3.88399        3.07357
H         -1.02924        6.86007        1.50708
H         -2.48501        3.44064        0.42858
H         -3.25646        4.17983        1.88686
C         -5.47483        5.26101        0.67168
C         -4.61980        6.56520       -1.28322
C         -4.46654        4.07251       -1.31938
H         -5.41149        6.15029        1.33452
H         -6.48322        5.24173        0.20556
H         -5.38563        4.34771        1.29397
H         -3.85059        6.63378       -2.08306
H         -5.62214        6.52946       -1.76206
H         -4.56172        7.48964       -0.67004
H         -3.68838        4.11009       -2.11080
H         -4.34909        3.13198       -0.74331
H         -5.46170        4.02679       -1.81427
