110
speciation2230.ct
Na         0.93982        0.07124        0.03609
Mg         6.83181        3.49757       -2.16956
C         -1.85438       -0.81933        1.03189
C         -1.99587       -0.14473       -1.21984
O         -1.38018        0.07124        0.03609
C         -1.54920       -2.29859        0.75950
C         -1.41227        0.81119       -2.24884
H         -1.33884       -0.54294        1.97563
H         -2.93967       -0.66419        1.21877
H         -1.82548       -1.17039       -1.60669
H         -3.08549        0.06686       -1.14276
H         -0.33894        0.58109       -2.40719
H         -1.94534        0.68796       -3.21612
H         -1.51996        1.86258       -1.90964
H         -0.46981       -2.43933        0.54725
H         -1.82269       -2.90005        1.65164
H         -2.14814       -2.68970       -0.08794
H          8.42330        1.70797       -3.60206
C         10.06948        3.04305       -3.16966
C          8.56578        2.80036       -3.52397
C         10.41317        2.57999       -1.74253
H         10.73793        2.52657       -3.89408
H         10.32468        4.11301       -3.29202
H          9.68193        3.00450       -1.03485
H         10.34597        1.47379       -1.68664
C         11.80334        3.04030       -1.28090
H          8.40739        3.23450       -4.53383
H         12.60431        2.64834       -1.94120
H         11.86138        4.15181       -1.26075
H         11.98937        2.67721       -0.24562
C          4.28411        3.45284       -3.53518
C          2.99971        3.02735       -3.77133
C          2.66273        2.17777       -2.74182
C          3.73216        2.15208       -1.84774
N          4.78823        2.89868       -2.41547
C          3.56418        1.55068       -0.36509
N          3.30982        0.07124        0.03609
C          3.16221       -0.24321        1.55273
H          2.36833        3.34278       -4.59105
H          4.82334        4.16875       -4.14163
H          1.70520        1.69214       -2.63417
H          4.30293        1.99795        0.28531
H          2.62966        2.05919       -0.06603
C          2.10607        0.64804        2.27282
C          2.76567       -1.72859        1.73278
C          4.39450       -0.08642        2.46031
H          1.06289        0.49151        1.97584
H          2.07284        0.41273        3.36261
H          2.36873        1.72200        2.18820
H          3.52809       -2.39439        1.26936
H          2.72541       -2.00123        2.81684
H          1.77405       -1.95346        1.30435
H          5.14082       -0.86313        2.29468
H          4.72912        0.95314        2.48841
H          4.15750       -0.30108        3.52810
Na         6.34369       -2.33678       -3.22048
Mg         4.38077       -1.18287       -1.09699
C          8.46600        5.78416       -1.46754
C          6.17623        6.19064       -1.01626
O          7.11501        5.43698       -1.77468
C          8.94181        5.57642       -0.01945
C          6.20179        7.69038       -1.34315
H          9.08625        5.15808       -2.08495
H          8.71737        6.80381       -1.82256
H          5.16378        5.81264       -1.26247
H          6.31445        6.07930        0.07280
H          5.99458        7.86334       -2.41882
H          5.43400        8.20937       -0.73237
H          7.17657        8.15169       -1.07821
H          8.82168        4.53369        0.31058
H         10.03015        5.78846        0.04026
H          8.42944        6.25456        0.68947
H          1.87293       -1.91148       -1.96774
C          2.93950       -3.28912       -3.24143
C          2.84257       -1.93540       -2.51300
C          2.89746       -4.47780       -2.27478
H          2.07758       -3.38414       -3.94441
H          3.87466       -3.31748       -3.83887
H          3.74188       -4.40093       -1.56090
H          1.94119       -4.46480       -1.70623
C          3.00078       -5.80982       -3.02386
H          2.79066       -1.14660       -3.29489
H          2.15335       -5.93246       -3.73316
H          3.95500       -5.86324       -3.59011
H          2.97419       -6.65226       -2.29988
C          6.75145        3.04816        0.43512
C          6.61965        2.07861        1.37136
C          6.61185        0.91554        0.69031
C          6.83795        1.12708       -0.61415
N          6.92834        2.46853       -0.76090
C          6.84926        0.05657       -1.72243
N          6.39525       -1.31812       -1.32341
C          7.31382       -2.28737       -0.61090
H          6.41026        2.29005        2.40749
H          6.69483        4.09240        0.61197
H          6.40815        0.00038        1.07729
H          7.83637        0.02239       -2.21644
H          6.13891        0.39398       -2.51226
C          7.58312       -1.99701        0.87508
C          6.65031       -3.68171       -0.63770
C          8.68934       -2.37101       -1.29347
H          6.63993       -2.05342        1.44593
H          8.23274       -2.76510        1.33389
H          8.15070       -1.05400        1.01515
H          6.51842       -4.06213       -1.66873
H          7.26908       -4.42169       -0.08165
H          5.65326       -3.64604       -0.14581
H          8.59461       -2.70302       -2.34539
H          9.21120       -1.39171       -1.25182
H          9.33523       -3.09814       -0.75294
