96
speciation1764.ct
Na        -2.45819       -3.94253       -1.09705
Mg         0.60154        2.14438       -4.74185
C         -0.65819        2.84189       -2.34164
C          0.09309        4.90308       -3.21923
O          0.25218        3.46773       -3.21397
C         -2.11861        2.98789       -2.77659
C          0.39592        5.61943       -1.89201
H         -0.36889        1.78687       -2.32647
H         -0.51220        3.13060       -1.28389
H          0.79649        5.36270       -3.93220
H         -0.92583        5.20536       -3.51772
H          1.47560        5.57082       -1.65343
H          0.13102        6.69357       -1.99525
H         -0.20774        5.23819       -1.04739
H         -2.23872        2.70758       -3.84438
H         -2.76059        2.33765       -2.14950
H         -2.48142        4.02828       -2.63294
H          4.94354        0.46569       -3.07630
C          4.01331        1.95593       -1.87850
C          3.95152        0.96605       -3.05290
C          2.68598        2.66698       -1.70043
H          4.23737        1.37304       -0.96364
H          4.82844        2.70792       -2.02222
H          2.52378        3.35065       -2.56031
H          1.90145        1.88645       -1.67050
C          2.60973        3.44831       -0.38900
H          3.87652        1.54215       -4.00258
H          2.86759        2.79490        0.46877
H          3.28176        4.33254       -0.40174
H          1.56820        3.78996       -0.22694
C          3.52499       -1.96151       -1.14819
C          3.70249       -2.76986       -0.05865
C          2.46030       -3.19584        0.30206
C          1.57204       -2.67618       -0.62267
N          2.22327       -1.85043       -1.49763
C          0.10098       -2.99986       -0.57007
N         -0.36081       -4.03819       -1.51572
C         -0.03220       -5.47501       -1.25271
H          4.63952       -3.02069        0.41848
H          4.33132       -1.48295       -1.68260
H          2.23663       -3.86533        1.12408
H         -0.45644       -2.05369       -0.75863
H         -0.18715       -3.26384        0.46117
C         -0.26847       -5.88104        0.21513
C         -0.97121       -6.33546       -2.13485
C          1.40821       -5.81099       -1.68086
H         -1.31418       -5.65933        0.51835
H         -0.09555       -6.97180        0.35406
H          0.41755       -5.36305        0.90358
H         -0.83153       -6.09122       -3.21336
H         -0.76475       -7.42486       -1.99767
H         -2.03734       -6.15744       -1.87418
H          1.57580       -5.54351       -2.74747
H          2.15560       -5.28498       -1.07198
H          1.60363       -6.90001       -1.55701
Mg         2.31589       -0.65244       -3.15350
C          0.58966        4.25894       -6.56477
C         -0.47976        2.34049       -7.44718
O          0.55067        2.83784       -6.59672
C         -0.76492        4.93160       -6.27335
C         -0.31687        2.73959       -8.92132
H          1.31450        4.50891       -5.76213
H          1.05325        4.68256       -7.46777
H         -0.40564        1.24219       -7.45910
H         -1.48666        2.60804       -7.06821
H          0.62430        2.31846       -9.32997
H         -1.17188        2.33189       -9.50420
H         -0.31859        3.83906       -9.06701
H         -1.27921        4.41121       -5.44606
H         -0.61847        6.00479       -6.02613
H         -1.43928        4.88086       -7.15117
C          3.82443       -2.97967       -4.25848
C          4.32117       -3.14554       -5.52053
C          3.81739       -2.09873       -6.28696
C          2.96781       -1.37807       -5.45500
N          3.07765       -1.87743       -4.24177
C          1.99903       -0.20121       -5.71112
N          1.01244        0.01905       -4.57764
C         -0.20972       -0.88911       -4.57110
H          4.99881       -3.92389       -5.83136
H          4.02206       -3.59295       -3.38734
H          4.03599       -1.90928       -7.33340
H          1.46747       -0.38562       -6.66161
H          2.61193        0.70764       -5.86883
C          0.13537       -2.38453       -4.42993
C         -1.07140       -0.51568       -3.36809
C         -1.11735       -0.73596       -5.82005
H          0.72146       -2.57515       -3.51070
H         -0.80789       -2.98501       -4.33777
H          0.67060       -2.77547       -5.31500
H         -1.50582        0.49665       -3.53779
H         -1.93693       -1.19081       -3.24768
H         -0.46912       -0.51828       -2.44372
H         -1.50479        0.29231       -5.89147
H         -0.61295       -1.03739       -6.75432
H         -2.01210       -1.38915       -5.72045
