110
speciation2373.ct
Na         1.07028       -0.06526        0.02833
Mg         4.27442        0.71043        1.82552
C         -1.70248       -0.93071        1.05657
C         -1.94168       -0.27844       -1.18816
O         -1.24972       -0.06526        0.02833
C         -1.42188       -2.41839        0.79910
C         -1.41336        0.64926       -2.27182
H         -1.15358       -0.64359        1.97854
H         -2.77902       -0.75899        1.27670
H         -1.81957       -1.30907       -1.56117
H         -3.02182       -0.04943       -1.04912
H         -0.35172        0.41688       -2.49487
H         -2.00901        0.50326       -3.19954
H         -1.49882        1.70819       -1.95313
H         -0.34797       -2.57565        0.56606
H         -1.68404       -3.00346        1.70538
H         -2.04405       -2.81665       -0.02816
H          7.10911        0.58658        1.87951
C          6.84896        1.64101        3.73234
C          6.40388        1.34548        2.28561
C          6.76403        0.36538        4.57863
H          7.90471        2.00236        3.73404
H          6.20397        2.43908        4.14149
H          5.74749       -0.05210        4.49749
H          7.47227       -0.39773        4.19584
C          7.07336        0.65548        6.04777
H          6.57286        2.26866        1.68487
H          8.12293        0.99497        6.17244
H          6.39414        1.43938        6.44731
H          6.92234       -0.27071        6.64132
C          6.36510       -3.31687       -1.04372
C          6.88137       -2.63948        0.05744
C          5.83443       -1.94668        0.60486
C          4.74060       -2.19283       -0.20616
N          5.04698       -3.06146       -1.20234
C          3.41577       -1.55002       -0.03023
N          3.44028       -0.06526        0.02833
C          4.11573        0.66593       -1.12369
H          7.90454       -2.64328        0.41717
H          6.95659       -3.95264       -1.68814
H          5.86705       -1.29557        1.46807
H          2.97053       -1.91959        0.91504
H          2.76161       -1.87596       -0.85830
C          3.51016        0.28824       -2.48681
C          3.95288        2.18520       -0.91567
C          5.65920        0.44899       -1.22794
H          2.42465        0.50554       -2.51019
H          4.00237        0.87079       -3.29987
H          3.68121       -0.78405       -2.71541
H          4.43250        2.49891        0.04140
H          4.46686        2.74627       -1.73064
H          2.89102        2.48914       -0.90850
H          6.17561        0.67841       -0.27924
H          5.94784       -0.55114       -1.58821
H          6.10351        1.11487       -2.00092
Na         3.00104       -7.37302       -8.31134
Mg         3.78718       -3.90331       -2.67153
C          0.97657       -2.68999       -2.87990
C          2.25590       -2.82591       -4.86531
O          2.15994       -3.18506       -3.50650
C         -0.31437       -3.25847       -3.49355
C          3.68861       -3.03440       -5.31056
H          0.99095       -2.99898       -1.81893
H          0.94845       -1.56791       -2.89800
H          1.60737       -3.50266       -5.46545
H          1.99640       -1.75742       -5.05611
H          4.00130       -4.04383       -5.03283
H          3.77293       -2.92925       -6.41211
H          4.36326       -2.33274       -4.78873
H         -0.26814       -4.36797       -3.52996
H         -1.19627       -2.96932       -2.88844
H         -0.48693       -2.87068       -4.52259
H          2.07420        0.66254        3.35137
C          3.27142        1.35936        5.00052
C          3.11935        0.54097        3.70770
C          3.09461        2.87327        4.79312
H          2.51402        1.01849        5.74455
H          4.26104        1.19270        5.45215
H          3.83931        3.23008        4.05167
H          2.07270        3.08685        4.41119
C          3.30707        3.63891        6.10490
H          3.24930       -0.52672        3.98599
H          2.56029        3.33116        6.86830
H          4.32677        3.44912        6.50614
H          3.20089        4.73034        5.92921
C          5.29868       -6.32620       -2.34391
C          5.79559       -7.53123       -2.78126
C          5.29857       -7.72183       -4.03876
C          4.47697       -6.64304       -4.30923
N          4.49956       -5.75543       -3.27044
C          3.72258       -6.50574       -5.61366
N          3.43325       -7.80380       -6.25695
C          2.30798       -8.62583       -5.73926
H          6.45671       -8.19864       -2.24463
H          5.50206       -5.89028       -1.37729
H          5.49875       -8.56585       -4.68542
H          2.81906       -5.87582       -5.52836
H          4.40229       -5.96046       -6.30549
C          0.99252       -7.82293       -5.64378
C          2.09866       -9.79012       -6.72373
C          2.63895       -9.24756       -4.35995
H          0.74055       -7.37793       -6.62926
H          0.16518       -8.47799       -5.31408
H          1.07436       -7.01171       -4.88815
H          3.03044      -10.39234       -6.82262
H          1.28060      -10.45595       -6.38350
H          1.83028       -9.40321       -7.73101
H          3.55646       -9.86825       -4.41620
H          2.75862       -8.46894       -3.58243
H          1.81039       -9.90677       -4.02192
