53
speciation829.ct
Na         6.98663        1.81511        0.17585
C          5.28487       -0.79834       -0.07422
C          3.99486       -1.27580       -0.19122
C          3.16649       -0.17345       -0.21534
C          3.99108        0.92689       -0.10970
N          5.28174        0.54725       -0.02355
C          3.54567        2.34815       -0.05583
N          2.84432        2.72498       -1.29508
C          2.36067        4.12926       -1.33703
H          3.69229       -2.31239       -0.24402
H          6.18083       -1.40126       -0.02186
H          2.08688       -0.17454       -0.28704
H          2.87965        2.44848        0.82394
H          4.44251        2.97730        0.09753
C          3.51805        5.14725       -1.21737
C          1.68587        4.33743       -2.70200
C          1.31747        4.40204       -0.23027
H          4.26398        4.98363       -2.01917
H          3.13427        6.18585       -1.31498
H          4.02363        5.09071       -0.23277
H          0.83525        3.63440       -2.82766
H          1.30059        5.37657       -2.79730
H          2.41183        4.15891       -3.52478
H          0.47587        3.68107       -0.30356
H          1.76163        4.33236        0.78354
H          0.90872        5.43141       -0.32838
Na         8.99534        4.04798       -5.88367
Mg         3.94428        2.39618       -2.92053
C          8.12268        4.99367       -3.07717
C          7.30914        4.73707       -1.99530
C          6.59134        3.60323       -2.30685
C          6.99230        3.21609       -3.56659
N          7.93095        4.06761       -4.03531
C          6.50011        2.00083       -4.30144
N          5.04423        2.06738       -4.54598
C          4.45097        0.90434       -5.24397
H          7.25361        5.30895       -1.07667
H          8.82709        5.81271       -3.15556
H          5.86508        3.10782       -1.68453
H          6.75431        1.12511       -3.67104
H          7.05072        1.94117       -5.26109
C          4.68932       -0.40785       -4.46365
C          2.93431        1.14518       -5.32417
C          5.00138        0.77278       -6.67993
H          4.32258       -0.31043       -3.41892
H          4.15229       -1.25166       -4.94834
H          5.76355       -0.68348       -4.44175
H          2.71649        2.08488       -5.87587
H          2.42850        0.30496       -5.84887
H          2.49864        1.23022       -4.30526
H          4.81879        1.70820       -7.25126
H          6.08928        0.55975       -6.68659
H          4.50322       -0.06659       -7.21174
