110
speciation2610.ct
Na         6.21996        3.45726        3.18230
Mg         1.41536        2.28683       -1.39483
C          0.71125        0.03805        0.57775
C          2.45766       -0.56183       -0.93210
O          1.46517        0.40018       -0.59757
C          1.48188       -0.35930        1.86028
C          1.84569       -1.93850       -1.21739
H          0.07375        0.87043        0.87739
H         -0.01039       -0.76142        0.31757
H          2.96258       -0.21794       -1.85525
H          3.25098       -0.65041       -0.15631
H          1.01546       -1.82484       -1.94189
H          2.61378       -2.62814       -1.62114
H          1.44503       -2.40082       -0.28972
H          2.12414        0.44784        2.24477
H          0.73916       -0.58804        2.65933
H          2.10336       -1.26561        1.73290
H         -1.29491        2.21147       -0.84770
C         -0.88988        4.32327       -0.88168
C         -0.49599        2.91324       -0.53395
C         -2.00889        4.86275        0.02011
H         -0.00907        4.95447       -0.69918
H         -1.14751        4.37796       -1.95474
H         -2.95521        4.27526       -0.05125
H         -1.66252        4.81551        1.07641
C         -2.25817        6.32405       -0.34251
H         -0.47726        2.86931        0.56699
H         -1.29300        6.84625       -0.52659
H         -2.87061        6.38006       -1.26617
H         -2.76886        6.85093        0.48835
C          3.22226        3.66127        4.01731
C          1.92660        3.46045        3.59297
C          2.01891        2.97523        2.31763
C          3.34879        2.91621        1.99119
N          4.09340        3.32722        3.03952
C          3.87452        2.49493        0.64299
N          3.23529        3.24773       -0.46864
C          3.47201        4.73005       -0.44962
H          1.01124        3.64848        4.13878
H          3.51005        4.04539        4.98504
H          1.22361        2.71337        1.67136
H          4.98230        2.58943        0.61050
H          3.65709        1.42702        0.50945
C          4.96276        5.13408       -0.27259
C          3.02740        5.23426       -1.77269
C          2.62407        5.45336        0.61724
H          5.60172        4.69137       -1.06784
H          5.06877        6.24129       -0.32801
H          5.36312        4.82329        0.71313
H          1.99832        4.85098       -1.89770
H          3.04205        6.34143       -1.85726
H          3.75213        4.83392       -2.49521
H          1.60731        5.03305        0.65205
H          2.54579        6.54020        0.40308
H          3.07575        5.38623        1.62151
Na         2.79189        2.30130       -2.32898
Mg         0.36158       -2.06811       -6.20239
C          0.22830       -4.72376       -7.56441
C          0.04386       -2.83186       -8.97766
O          0.07227       -3.31510       -7.65131
C          1.55579       -5.22598       -8.14493
C         -0.23576       -1.34182       -8.95233
H          0.20028       -4.99330       -6.48917
H         -0.63158       -5.25518       -8.03571
H          1.03049       -2.96654       -9.46841
H         -0.76618       -3.32124       -9.56695
H          0.54259       -0.82816       -8.34850
H         -0.22388       -0.93593       -9.98486
H         -1.23267       -1.15522       -8.51075
H          2.39942       -4.64905       -7.71591
H          1.68950       -6.30202       -7.90621
H          1.56877       -5.13147       -9.25188
H          2.05113       -1.50400       -4.27745
C          3.19409       -3.16215       -4.95610
C          1.84102       -2.48513       -4.72909
C          4.08125       -2.38752       -5.93664
H          3.71534       -3.21478       -3.97238
H          3.03434       -4.19598       -5.32459
H          3.58607       -2.34448       -6.92947
H          4.24099       -1.34950       -5.56885
C          5.44624       -3.06414       -6.08348
H          1.27673       -3.08545       -3.98689
H          5.97638       -3.08792       -5.10624
H          5.32601       -4.10469       -6.45339
H          6.07222       -2.50046       -6.80704
C         -2.02742       -0.36533       -5.98616
C         -2.60186        0.78245       -5.48974
C         -1.63231        1.42367       -4.76575
C         -0.47230        0.65540       -4.86091
N         -0.73801       -0.45901       -5.59805
C          0.89782        0.93326       -4.24257
N          1.23953        2.31232       -3.78201
C          1.37068        3.33142       -4.96294
H         -3.62722        1.10525       -5.65844
H         -2.53655       -1.10426       -6.58125
H         -1.77116        2.36097       -4.24915
H          1.67459        0.60036       -4.96126
H          0.99578        0.25687       -3.38044
C          0.02024        3.87166       -5.49824
C          2.14369        4.57762       -4.57593
C          2.15924        2.76584       -6.19187
H         -0.59454        4.30392       -4.68001
H          0.18721        4.69174       -6.23591
H         -0.53271        3.12657       -6.08910
H          3.16349        4.26944       -4.30819
H          2.26950        5.28352       -5.42685
H          1.56438        5.16612       -3.84525
H          3.19262        2.47876       -5.90779
H          1.64612        1.92319       -6.68402
H          2.24514        3.55304       -6.98268
