68
speciation40.ct
Na         1.41385        2.00868        0.23555
Mg         3.38218        0.08335       -1.63630
C          1.32316        4.83455        0.94896
C          2.84383        4.29491       -0.82692
O          2.20655        3.88444        0.36847
C          0.28498        5.45513        0.00511
C          3.94570        5.31550       -0.55112
H          0.76018        4.29805        1.74168
H          1.90122        5.62492        1.47312
H          3.33580        3.39919       -1.26265
H          2.13259        4.64774       -1.59997
H          4.68219        4.89201        0.16463
H          4.46814        5.56537       -1.49828
H          3.52069        6.24936       -0.12919
H         -0.29819        4.66143       -0.50640
H         -0.41044        6.08791        0.59635
H          0.76439        6.11994       -0.74292
C         -1.66871        1.15412        0.04204
C         -2.33683       -0.04647       -0.11796
C         -1.36925       -1.02505       -0.22698
C         -0.15692       -0.37560       -0.12603
N         -0.34143        0.93943        0.03630
C          1.20003       -1.00313       -0.16993
N          2.24500        0.03300       -0.00400
C          3.18145       -0.17316        1.12156
H         -3.40813       -0.18979       -0.14375
H         -2.12637        2.12670        0.16856
H         -1.53162       -2.08758       -0.35567
H          1.33840       -1.50171       -1.15120
H          1.23350       -1.78421        0.61292
C          3.96823       -1.49389        0.95641
C          4.17972        0.99057        1.09328
C          2.44538       -0.14529        2.47980
H          4.48795       -1.51559       -0.02558
H          4.72889       -1.59586        1.76034
H          3.31030       -2.38398        1.01855
H          3.66061        1.95928        1.23101
H          4.94123        0.88781        1.89635
H          4.68993        1.01805        0.11365
H          1.87068        0.79935        2.58843
H          1.73975       -0.99222        2.59283
H          3.17340       -0.21299        3.31704
Na         4.19770        1.99395       -4.27200
C          7.44669        2.01107       -0.25516
C          7.07204        3.00558       -1.13444
C          6.46049        2.39241       -2.21791
C          6.45965        1.07344       -2.00492
N          7.07504        0.76146       -0.77278
C          5.96016        0.01612       -2.95379
N          4.51935        0.13370       -3.26860
C          4.00642       -0.94042       -4.15876
H          7.24364        4.06278       -0.99351
H          7.95842        2.15972        0.68641
H          6.07786        2.89648       -3.09386
H          6.17673       -0.95871       -2.47229
H          6.56867        0.11318       -3.87412
C          4.09803       -2.33135       -3.48889
C          2.52415       -0.63943       -4.43031
C          4.75485       -0.97086       -5.51134
H          3.56677       -2.33209       -2.51345
H          3.63900       -3.10568       -4.14131
H          5.14720       -2.64874       -3.32372
H          2.40890        0.34923       -4.92271
H          2.07959       -1.41339       -5.09416
H          1.95033       -0.62550       -3.47924
H          4.72084        0.02517       -6.00175
H          5.81591       -1.27281       -5.38857
H          4.29483       -1.71664       -6.19550
