68
speciation45.ct
Na         1.81429        1.20315       -2.66553
Mg         5.41326        0.18028       -5.69856
C          0.41119       -0.12483        0.56317
C         -0.56359       -1.45049       -0.92364
O          0.43862       -0.38124       -0.88793
C          1.44042        0.77055        1.18458
C         -0.92531       -2.17305       -2.19758
H         -0.58019        0.29445        0.87637
H          0.58544       -1.06242        1.16212
H         -0.23770       -2.32313       -0.27817
H         -1.55026       -1.10458       -0.50822
H         -0.06443       -2.74496       -2.58608
H         -1.71365       -2.92784       -1.91990
H         -1.37319       -1.47536       -2.91697
H          1.37813        1.74759        0.71827
H          1.20420        0.88059        2.27387
H          2.43770        0.31252        1.13419
C          2.06381        4.70991       -4.49544
C          2.99026        5.67287       -4.83055
C          4.06278        5.01406       -5.29029
C          3.74485        3.67206       -5.24328
N          2.59642        3.44018       -4.50120
C          4.59718        2.72275       -5.98713
N          5.46418        2.04288       -5.11747
C          6.91154        2.40405       -4.94947
H          2.90428        6.74997       -4.74895
H          1.10015        5.03226       -4.16179
H          4.97342        5.47883       -5.64474
H          5.12230        3.18518       -6.84682
H          3.88874        1.98147       -6.40800
C          7.12693        3.80143       -4.35043
C          7.50413        1.37561       -3.95568
C          7.70516        2.30068       -6.26660
H          6.53547        3.94509       -3.42260
H          8.20357        3.93903       -4.09487
H          6.89595        4.58511       -5.09104
H          7.42711        0.34364       -4.36202
H          8.58077        1.58294       -3.76465
H          6.96782        1.41069       -2.98254
H          7.62543        1.29024       -6.71670
H          7.36284        3.05585       -7.00251
H          8.78317        2.50735       -6.07402
Na         4.15418        2.43447       -3.18164
C          4.08985       -0.90293       -1.12972
C          5.10547       -0.85901       -0.17589
C          5.19365        0.44176        0.21480
C          4.23717        1.11154       -0.49276
N          3.57628        0.31240       -1.35425
C          3.94000        2.53441       -0.30698
N          2.84418        2.82605       -1.24580
C          2.25061        4.17620       -1.01316
H          5.70690       -1.66287        0.19836
H          3.75196       -1.81878       -1.60827
H          5.84773        0.87355        0.97471
H          3.58675        2.67551        0.75032
H          4.81538        3.11570       -0.51241
C          3.33992        5.25982       -1.26338
C          1.03838        4.28290       -1.91603
C          1.61449        4.43879        0.37533
H          3.90939        5.07305       -2.19634
H          2.91445        6.28388       -1.28802
H          4.07392        5.25419       -0.42303
H          0.12138        3.80080       -1.54283
H          0.80036        5.35148       -2.13512
H          1.15793        3.57033       -2.72339
H          0.76007        3.75443        0.56096
H          2.32179        4.37843        1.21698
H          1.17123        5.46254        0.38341
