55
speciation345.ct
Na         0.96613        0.06712        0.06594
Mg         5.53792        0.60219        4.44194
C         -1.69302       -0.35533       -1.24633
C         -1.90247        1.34160        0.35522
O         -1.35387        0.06712        0.06594
C         -1.13004        0.53626       -2.36307
C         -1.58466        1.73548        1.78915
H         -1.25270       -1.36598       -1.37868
H         -2.79324       -0.47744       -1.35768
H         -1.47664        2.13439       -0.29419
H         -3.01072        1.31296        0.25081
H         -0.48894        1.84607        1.91684
H         -2.06044        2.71307        2.01858
H         -1.96847        0.97177        2.49699
H         -0.04026        0.67602       -2.23072
H         -1.31218        0.06218       -3.34940
H         -1.62018        1.53146       -2.38581
H          8.23432       -0.24558        5.16414
C          7.92240        1.80550        5.83610
C          7.39833        0.46937        5.30387
C          6.89174        2.54055        6.70458
H          8.83314        1.63286        6.45037
H          8.21180        2.44367        4.97322
H          7.31253        3.53255        6.97974
H          5.95149        2.70566        6.13562
C          6.59167        1.78845        8.00496
H          7.14369        0.61050        4.23696
H          6.13768        0.79794        7.79464
H          7.52662        1.64273        8.58905
H          5.88414        2.37822        8.62581
C          2.83107        1.01454        4.46117
C          1.57361        0.85559        3.92968
C          1.74377        0.22577        2.72364
C          3.10709        0.05100        2.53799
N          3.75999        0.51322        3.63528
C          3.74345       -0.61046        1.32244
N          3.33613        0.06712        0.06594
C          3.86724       -0.47709       -1.20275
H          0.63769        1.14621        4.38321
H          3.04994        1.45593        5.42053
H          0.93786       -0.07490        2.09091
H          3.39297       -1.66437        1.31173
H          4.84560       -0.59348        1.45165
C          3.44879       -1.94744       -1.40981
C          3.26725        0.36284       -2.34213
C          5.40207       -0.34870       -1.26724
H          2.34371       -2.04875       -1.35156
H          3.78107       -2.30685       -2.40860
H          3.91117       -2.61241       -0.65270
H          3.53645        1.43471       -2.22350
H          3.63297        0.01541       -3.33290
H          2.16364        0.28094       -2.33668
H          5.70853        0.71025       -1.12620
H          5.89700       -0.96976       -0.49407
H          5.77754       -0.69178       -2.25641
