96
speciation1367.ct
Na         0.22772        0.57760       -0.59818
Mg         3.25361       -0.27893       -1.84708
C         -1.00614        3.13581        0.14974
C         -1.48612        2.39100       -2.07754
O         -0.56570        2.42397       -1.00333
C         -2.42454        2.82273        0.64864
C         -1.54302        3.73594       -2.79671
H         -0.31476        2.87276        0.97466
H         -0.87892        4.22753       -0.00662
H         -1.11444        1.64514       -2.81098
H         -2.49181        2.03106       -1.78133
H         -0.52658        4.01829       -3.14508
H         -2.21851        3.66268       -3.67396
H         -1.92985        4.52599       -2.12047
H         -2.54846        1.73213        0.81407
H         -2.59691        3.35305        1.60945
H         -3.19276        3.19229       -0.06155
H          1.36161        1.55555       -2.53581
C          2.40712        1.67606       -4.40772
C          2.41480        1.53425       -2.87721
C          1.69222        0.48966       -5.05665
H          1.89886        2.62159       -4.71272
H          3.43524        1.77528       -4.78701
H          2.05632       -0.46335       -4.61553
H          0.60655        0.57896       -4.83175
C          1.91620        0.42326       -6.57397
H          2.90835        2.43787       -2.46257
H          0.95015        0.28765       -7.10326
H          2.42350        1.32785       -6.97306
H          2.55658       -0.45510       -6.81133
C         -1.55308       -2.02106       -0.15968
C         -1.29762       -3.33085        0.19806
C          0.06462       -3.43423        0.38954
C          0.58484       -2.18101        0.13408
N         -0.39840       -1.32732       -0.19048
C          2.00650       -1.76348        0.21111
N          2.16096       -0.32056       -0.12306
C          2.62557        0.52651        1.00763
H         -2.03269       -4.11710        0.30516
H         -2.52170       -1.59456       -0.38764
H          0.61321       -4.31872        0.68357
H          2.60055       -2.36699       -0.50125
H          2.35030       -2.01902        1.23142
C          3.99041        0.07214        1.54568
C          2.79899        1.95939        0.48359
C          1.58932        0.53974        2.15236
H          4.68444        0.04739        0.69053
H          4.36840        0.78134        2.31559
H          3.97439       -0.92583        2.02677
H          1.85312        2.34349        0.05732
H          3.11808        2.64377        1.29996
H          3.58051        1.98390       -0.30359
H          0.59715        0.86859        1.78275
H          1.46277       -0.46255        2.61239
H          1.90627        1.23430        2.96230
Mg         5.56452       -2.51587       -0.77503
C          7.02882       -1.10589        1.51894
C          6.78672       -3.48869        1.51812
O          6.40109       -2.25403        0.94428
C          8.55868       -1.13164        1.55681
C          6.32680       -3.63961        2.96769
H          6.76892       -0.21728        0.92439
H          6.61273       -0.91261        2.53003
H          6.27586       -4.28587        0.94388
H          7.87208       -3.68978        1.39422
H          5.22904       -3.49239        3.03320
H          6.57626       -4.65984        3.32963
H          6.83837       -2.90958        3.62775
H          8.93827       -1.93179        2.22289
H          8.91913       -0.16571        1.97131
H          8.96677       -1.25663        0.53280
C          5.26917       -5.51474       -1.45706
C          4.65871       -6.18257       -2.50337
C          4.12021       -5.21652       -3.32922
C          4.43563       -4.00538       -2.74702
N          5.12761       -4.18480       -1.61955
C          4.08922       -2.64215       -3.23994
N          4.75055       -1.60113       -2.40421
C          5.94725       -0.98790       -3.04091
H          4.60887       -7.25452       -2.64534
H          5.78155       -5.98020       -0.62700
H          3.57131       -5.37980       -4.24803
H          2.98755       -2.52257       -3.18856
H          4.37226       -2.59014       -4.30602
C          5.58359       -0.22292       -4.31996
C          6.53636        0.01015       -2.04050
C          7.03337       -2.03208       -3.36832
H          4.81274        0.49283       -4.04570
H          6.46046        0.32772       -4.72256
H          5.21666       -0.86432       -5.14418
H          5.74730        0.69550       -1.66260
H          7.34509        0.61665       -2.50246
H          6.97945       -0.54090       -1.19473
H          7.32581       -2.60414       -2.45880
H          6.68836       -2.76975       -4.13495
H          7.94055       -1.54704       -3.77555
