96
speciation1008.ct
Na         1.29646       -0.05675        0.31871
Mg        -1.99361       -1.99290       -0.78987
C         -0.82575        1.40254        1.79915
C          1.00683        1.29943        3.27278
O          0.44763        0.83842        2.04808
C         -0.79408        2.90775        1.49067
C          2.35506        0.64517        3.52334
H         -1.21499        0.88568        0.90427
H         -1.54769        1.17313        2.61658
H          1.17910        2.39641        3.25638
H          0.34301        1.02793        4.12386
H          3.07447        0.90963        2.72385
H          2.76249        1.01252        4.49009
H          2.24754       -0.45681        3.57055
H         -0.06272        3.12318        0.68700
H         -1.79689        3.24247        1.15160
H         -0.53624        3.49833        2.39421
H         -3.87736       -3.50219        0.54618
C         -3.23219       -2.57711        2.39579
C         -2.95173       -3.05776        0.96350
C         -4.36249       -1.57143        2.47729
H         -3.51785       -3.47012        2.99855
H         -2.33109       -2.14020        2.87032
H         -4.08548       -0.65830        1.91545
H         -5.28032       -2.02657        2.04479
C         -4.62258       -1.20571        3.93580
H         -2.27655       -3.91849        1.13155
H         -4.86879       -2.11668        4.52479
H         -3.72034       -0.72839        4.37570
H         -5.47355       -0.49927        3.99684
C          0.12087        1.77521       -3.17469
C         -0.19784        1.07158       -4.31556
C         -0.09497       -0.27098       -4.01224
C          0.25561       -0.38557       -2.73120
N          0.43219        0.88155       -2.13538
C          0.56683       -1.69133       -2.06835
N          0.12710       -1.75112       -0.65945
C          0.63403       -2.98074        0.03508
H         -0.46562        1.49772       -5.27290
H          0.13476        2.85277       -3.08722
H         -0.23998       -1.09306       -4.70202
H          1.65845       -1.74643       -2.12743
H          0.14582       -2.52556       -2.66507
C          2.15462       -3.20757       -0.08285
C          0.38280       -2.78949        1.53598
C         -0.04438       -4.25475       -0.52344
H          2.67492       -2.32425        0.30544
H          2.46776       -4.08068        0.53160
H          2.48263       -3.43242       -1.11754
H         -0.64198       -2.50669        1.71565
H          0.63251       -3.70102        2.12125
H          0.98996       -1.94578        1.92974
H         -1.13652       -4.18269       -0.56462
H          0.27317       -4.44775       -1.56742
H          0.24746       -5.14886        0.07001
Mg        -2.30268       -0.90442       -3.70580
C          4.16505       -0.40752       -0.92815
C          3.85546        1.72326       -0.01499
O          3.21879        0.53694       -0.44817
C          5.05800       -0.99337        0.17297
C          2.81714        2.76997        0.32748
H          3.61074       -1.22717       -1.40502
H          4.77804        0.01263       -1.75741
H          4.46965        1.54200        0.89264
H          4.48397        2.15217       -0.82874
H          2.18634        2.40226        1.14699
H          3.31791        3.70082        0.66609
H          2.17884        2.98431       -0.55324
H          4.45532       -1.33254        1.03864
H          5.62540       -1.85707       -0.23394
H          5.78967       -0.24341        0.53211
C         -2.92885       -5.77843       -2.43351
C         -2.01459       -5.21123       -3.29681
C         -2.37806       -3.88492       -3.47299
C         -3.46889       -3.65379       -2.74094
N         -3.87079       -4.81368       -2.05119
C         -4.24000       -2.37416       -2.67501
N         -3.41832       -1.26212       -2.16732
C         -4.17962        0.02303       -2.04780
H         -1.18268       -5.73037       -3.74251
H         -2.93450       -6.80336       -2.08876
H         -1.87346       -3.17105       -4.11105
H         -5.10600       -2.56342       -2.01565
H         -4.59680       -2.15736       -3.70426
C         -5.36962       -0.07438       -1.06623
C         -3.22197        1.10389       -1.54191
C         -4.72487        0.49699       -3.42362
H         -5.02740       -0.39032       -0.06800
H         -5.87472        0.91217       -0.97094
H         -6.14861       -0.78033       -1.41771
H         -2.37688        1.22740       -2.24531
H         -3.73998        2.08504       -1.44878
H         -2.83515        0.82004       -0.54898
H         -3.90585        0.58438       -4.16868
H         -5.50316       -0.18305       -3.82647
H         -5.20877        1.49472       -3.33098
