110
speciation2407.ct
Na         4.92800        5.87329        2.62714
Mg         1.42095        2.89969       -1.63411
C          5.13908        9.13023        1.68162
C          6.85444        8.36307        3.09596
O          5.55910        8.10511        2.57128
C          5.97899        9.24479        0.39876
C          7.27556        7.28562        4.08630
H          4.08501        8.93231        1.40201
H          5.13093       10.11177        2.20732
H          7.62211        8.34153        2.29600
H          6.87161        9.33487        3.63909
H          7.28959        6.29064        3.59356
H          8.30578        7.50909        4.44389
H          6.59447        7.26293        4.96105
H          5.98452        8.29415       -0.14865
H          5.55539       10.03597       -0.25370
H          7.03156        9.52590        0.59962
H          2.42637        1.08734       -0.61859
C          0.74085        0.44554        0.45860
C          1.48375        1.52836       -0.25756
C          0.48156       -0.73821       -0.43768
H          1.38369        0.12329        1.30578
H         -0.20449        0.85830        0.87346
H         -0.20079       -0.44213       -1.25217
H          1.43527       -1.10326       -0.88483
C         -0.13921       -1.85297        0.38595
H          1.63645        2.31256        0.51010
H          0.57543       -2.16769        1.17552
H         -1.07407       -1.48977        0.86138
H         -0.36453       -2.71786       -0.26860
C          4.03376        2.92800        3.80463
C          3.74257        1.61121        3.53850
C          3.77843        1.47267        2.16460
C          4.10771        2.71267        1.63076
N          4.28329        3.59338        2.68421
C          4.32092        2.92329        0.09355
N          3.31763        3.70142       -0.74195
C          3.47165        5.18217       -0.72110
H          3.51961        0.82198        4.24154
H          4.12206        3.36258        4.79376
H          3.64442        0.55164        1.60811
H          5.36140        3.24356       -0.08064
H          4.35794        1.90833       -0.34870
C          4.94066        5.61324       -0.93894
C          2.66172        5.83439       -1.82142
C          2.89092        5.72716        0.57874
H          5.33426        5.15718       -1.87716
H          4.98628        6.70378       -1.06757
H          5.60474        5.34912       -0.09384
H          1.64750        5.42812       -1.79212
H          2.61460        6.93805       -1.69728
H          3.14850        5.69032       -2.78498
H          1.82601        5.44127        0.69079
H          3.40394        5.30098        1.41866
H          2.99753        6.83036        0.64427
Na         2.95738        2.53279       -2.46493
Mg         0.08747        0.27649       -7.67320
C          0.94131       -0.54777      -10.28614
C          1.89972        1.45659       -9.51658
O          0.79062        0.58321       -9.45508
C         -0.18507       -1.52837      -10.01072
C          1.99541        2.19848      -10.85819
H          0.82813       -0.24412      -11.34992
H          1.91749       -1.05835      -10.12646
H          1.71986        2.24648       -8.76617
H          2.84958        0.93986       -9.26059
H          1.04983        2.74418      -11.06505
H          2.82691        2.93289      -10.81463
H          2.20694        1.50106      -11.69201
H         -1.16583       -1.02178      -10.13787
H         -0.12490       -2.37414      -10.72879
H         -0.10433       -1.91992       -8.97595
H         -1.19748        2.76801       -0.98796
C         -1.10355        4.77499       -1.72379
C         -0.50333        3.63201       -0.92548
C         -2.44040        5.30982       -1.19770
H         -0.40354        5.62284       -1.67071
H         -1.22643        4.45171       -2.77431
H         -3.24368        4.53296       -1.18874
H         -2.29923        5.65581       -0.15015
C         -2.82661        6.50677       -2.08526
H         -0.39453        3.92314        0.14259
H         -1.91980        7.06117       -2.39982
H         -3.32507        6.15572       -3.01637
H         -3.42648        7.26515       -1.54174
C         -1.96698       -0.20505       -5.80395
C         -2.43578        0.00470       -4.53036
C         -1.34218        0.33018       -3.75631
C         -0.22955        0.29255       -4.57484
N         -0.63380       -0.03813       -5.84539
C          1.17767        0.71227       -4.10856
N          1.37359        2.16742       -3.79281
C          1.40824        3.06456       -5.00660
H         -3.47282       -0.00449       -4.21940
H         -2.58054       -0.37489       -6.67895
H         -1.38578        0.62205       -2.71675
H          1.92726        0.36262       -4.83848
H          1.40780        0.12479       -3.19716
C          0.01124        3.24816       -5.63828
C          1.88743        4.43814       -4.60118
C          2.41304        2.58241       -6.09233
H         -0.71877        3.59281       -4.87972
H          0.04880        4.00314       -6.45411
H         -0.36185        2.33495       -6.11365
H          2.92739        4.31869       -4.24604
H          1.91193        5.13984       -5.46605
H          1.20166        4.86209       -3.84717
H          3.44683        2.52153       -5.68655
H          2.14513        1.60448       -6.53470
H          2.43690        3.31025       -6.93298
