110
speciation2562.ct
Na         1.17092        1.47818        0.28010
Mg         2.06400        5.63060       -4.53501
C          3.03852        6.63144       -7.06183
C          1.63954        4.70964       -7.22054
O          2.51772        5.47636       -6.41175
C          2.02292        7.56238       -7.73644
C          2.38932        3.95754       -8.32276
H          3.55736        7.22662       -6.29700
H          3.83334        6.33534       -7.77987
H          1.14200        3.95891       -6.57813
H          0.80962        5.30759       -7.64147
H          3.17467        3.30839       -7.88272
H          1.67693        3.32611       -8.89351
H          2.86154        4.66473       -9.03536
H          1.25125        7.88691       -7.00869
H          2.55662        8.45655       -8.12276
H          1.54486        7.08230       -8.61430
H         -0.18569        6.43012       -3.23530
C         -1.03929        5.43736       -4.96237
C          0.01634        6.34618       -4.32457
C         -2.45864        6.00968       -4.80419
H         -0.82442        5.34738       -6.04377
H         -0.98211        4.43024       -4.49710
H         -2.71431        6.10538       -3.72667
H         -2.50855        7.01779       -5.27193
C         -3.49647        5.11579       -5.48347
H         -0.08873        7.34687       -4.79125
H         -3.27237        5.01780       -6.56755
H         -3.50253        4.10662       -5.02021
H         -4.50797        5.56294       -5.37463
C          3.26495       -0.93706        0.34962
C          3.15438       -2.28158        0.63941
C          1.81691       -2.52456        0.89622
C          1.17393       -1.31539        0.73427
N          2.04852       -0.35890        0.42318
C         -0.29343       -1.04426        0.89106
N         -0.63456        0.34231        0.47935
C         -1.31150        0.51555       -0.82649
H          3.96032       -3.00526        0.66900
H          4.17954       -0.40659        0.11741
H          1.36781       -3.47166        1.16332
H         -0.54809       -1.17521        1.96139
H         -0.86843       -1.79044        0.31802
C         -2.70332       -0.14651       -0.86791
C         -1.49763        2.02445       -1.04496
C         -0.45562       -0.05212       -1.97578
H         -3.33804        0.23723       -0.04270
H         -3.19832        0.08067       -1.83544
H         -2.63857       -1.24781       -0.79002
H         -0.53024        2.54071       -1.00100
H         -1.96622        2.24847       -2.02791
H         -2.15131        2.45283       -0.24951
H          0.54244        0.36789       -1.92707
H         -0.34571       -1.15137       -1.90273
H         -0.89050        0.20342       -2.96530
Na        -1.80903        1.23682        2.02815
Mg         3.88371        3.60967        0.01084
C          6.50867        3.14381       -1.05464
C          6.59850        3.67835        1.18827
O          5.81706        3.77009        0.00979
C          5.68065        3.18357       -2.31893
C          5.95597        4.43626        2.33699
H          7.44775        3.70084       -1.27587
H          6.73254        2.07754       -0.82161
H          6.76000        2.61973        1.49101
H          7.58042        4.18060        1.01927
H          5.01451        3.95613        2.62921
H          6.63022        4.41311        3.21941
H          5.76388        5.49196        2.05322
H          5.42339        4.22832       -2.57704
H          6.24693        2.72769       -3.15912
H          4.76571        2.59972       -2.15567
H          3.55988        6.58930       -2.45079
C          4.38839        8.10534       -3.72270
C          3.78835        6.69205       -3.53121
C          3.41632        9.22255       -3.34126
H          5.28421        8.20282       -3.06771
H          4.74069        8.25036       -4.76390
H          3.11160        9.09576       -2.27974
H          3.91382       10.21153       -3.44738
C          2.19125        9.19751       -4.23224
H          4.60690        5.98602       -3.77861
H          2.47291        9.37364       -5.29121
H          1.73910        8.20544       -4.13961
H          1.45531        9.95954       -3.90720
C          2.48054        2.72059       -4.46093
C          2.58671        1.60061       -3.67570
C          2.33625        2.00891       -2.39566
C          2.02949        3.35207       -2.44261
N          2.15576        3.80343       -3.72008
C          1.64965        4.18531       -1.24655
N          1.90052        3.44511        0.01193
C          1.47507        4.11198        1.26713
H          2.84420        0.59917       -3.99335
H          2.66116        2.73111       -5.52192
H          2.38038        1.38157       -1.52458
H          0.58594        4.49024       -1.35253
H          2.27991        5.09007       -1.25882
C         -0.05794        4.14560        1.41218
C          2.02398        3.26882        2.43119
C          2.03110        5.54624        1.37324
H         -0.46921        3.11815        1.39151
H         -0.33795        4.59413        2.39105
H         -0.53846        4.74788        0.61735
H          3.11130        3.14629        2.33145
H          1.79978        3.73723        3.41451
H          1.59050        2.24716        2.42774
H          3.13786        5.55300        1.28177
H          1.59708        6.19798        0.58735
H          1.75176        5.99446        2.35095
