95
speciation1658.ct
Na         1.19229       -0.59702       -0.75532
Mg         2.45383       -2.53766       -5.58109
C          1.91074       -3.58888       -8.49238
C          4.21209       -3.78465       -7.82720
O          2.89987       -3.30282       -7.50081
C          1.70427       -5.09371       -8.80763
C          4.72325       -3.48985       -9.26445
H          0.94404       -3.19365       -8.11917
H          2.11302       -3.04056       -9.44352
H          4.92247       -3.26652       -7.15343
H          4.29324       -4.87450       -7.62722
H          4.64757       -2.41226       -9.51847
H          5.79551       -3.78467       -9.34943
H          4.18710       -4.07765      -10.04091
H          1.57473       -5.67613       -7.87296
H          0.78995       -5.21710       -9.43050
H          2.54220       -5.52409       -9.38731
H          1.09682       -0.35760       -4.62751
C         -0.26658       -0.72228       -6.26684
C          1.15643       -0.73396       -5.67151
C         -1.22085       -1.65286       -5.51068
H         -0.67465        0.31604       -6.22178
H         -0.21650       -1.02200       -7.33461
H         -0.81148       -2.68318       -5.53430
H         -1.31151       -1.32051       -4.45269
C         -2.61743       -1.66690       -6.14056
H          1.75420        0.00494       -6.24737
H         -3.08588       -0.65971       -6.09926
H         -2.56270       -1.99644       -7.20026
H         -3.26866       -2.37797       -5.58775
C          2.31991       -4.08605       -2.97095
C          2.48745       -4.21096       -1.60634
C          2.99642       -3.02555       -1.16112
C          3.12136       -2.20737       -2.26902
N          2.69923       -2.85682       -3.41101
C          3.63706       -0.78496       -2.13570
N          3.28693       -0.18724       -0.81464
C          3.25639        1.31321       -0.77867
H          2.26575       -5.06813       -0.97915
H          1.92816       -4.86867       -3.60466
H          3.23991       -2.77967       -0.13512
H          3.18809       -0.24110       -2.98074
H          4.73810       -0.78573       -2.27681
C          2.24330        1.89524       -1.79874
C          2.79592        1.72947        0.62800
C          4.62837        1.95084       -1.07754
H          1.22385        1.48591       -1.66494
H          2.17811        2.99451       -1.67390
H          2.55567        1.74900       -2.85655
H          3.50998        1.36370        1.39602
H          2.72004        2.83261        0.71296
H          1.79649        1.29462        0.84762
H          5.33721        1.81500       -0.25482
H          5.06050        1.56519       -2.02466
H          4.51905        3.05088       -1.18653
Na         6.42273       -2.18383       -1.06261
Mg         4.36553       -1.22046        0.82573
H          3.27136       -2.60971        3.04177
C          1.74832       -1.07414        3.04822
C          3.20923       -1.52441        2.80449
C          0.75371       -1.79073        2.13149
H          1.45238       -1.28194        4.10545
H          1.68667        0.02283        2.89680
H          1.08115       -1.66148        1.09020
H          0.73977       -2.87780        2.36249
C         -0.66580       -1.22805        2.26814
H          3.81278       -1.01006        3.58092
H         -1.05868       -1.36983        3.29762
H         -0.67953       -0.14393        2.02225
H         -1.34315       -1.75046        1.55835
C          8.93137        1.00450        3.86296
C          7.65934        0.88023        4.37729
C          6.84435        0.37269        3.37889
C          7.59769        0.17518        2.28826
N          8.92946        0.57871        2.52039
C          7.15122       -0.39514        0.97099
N          6.48246       -1.71328        1.02307
C          7.34577       -2.86549        1.50382
H          7.37069        1.11846        5.39514
H          9.79651        1.35530        4.39174
H          5.79361        0.14529        3.46784
H          7.98875       -0.39829        0.25322
H          6.42683        0.29530        0.56194
C          7.86789       -2.68755        2.95977
C          6.52914       -4.15238        1.47519
C          8.59051       -3.06795        0.58683
H          7.03592       -2.49873        3.66710
H          8.40016       -3.60780        3.28848
H          8.63960       -1.90356        3.04908
H          6.16612       -4.36595        0.44864
H          7.15895       -5.01453        1.79801
H          5.66214       -4.08368        2.16338
H          8.29660       -3.40664       -0.42951
H          9.26596       -3.84836        1.00624
H          9.21020       -2.15793        0.48519
