81
speciation353.ct
Na         6.34751        1.38865       -3.21224
Mg         2.38009        4.81359       -1.23714
C          8.32076        3.25481       -4.91694
C          6.54822        2.46530       -6.25350
O          7.36471        2.22579       -5.12193
C          7.73276        4.64905       -4.65581
C          5.59470        1.30066       -6.46913
H          8.92114        2.96989       -4.02755
H          9.03764        3.28641       -5.76720
H          5.92199        3.37206       -6.12325
H          7.17910        2.55119       -7.16754
H          4.91934        1.19498       -5.59389
H          4.97676        1.49594       -7.37267
H          6.16004        0.35756       -6.61876
H          7.03810        4.62520       -3.79106
H          8.56104        5.35495       -4.43313
H          7.20760        5.04709       -5.54821
H          4.21929        5.09449       -3.09603
C          3.73091        7.17641       -2.76830
C          3.31397        5.71074       -2.90922
C          4.42361        7.69372       -4.03773
H          2.83189        7.79138       -2.54843
H          4.44686        7.26216       -1.93292
H          5.32677        7.07859       -4.24620
H          3.73015        7.61519       -4.90222
C          4.85638        9.15209       -3.88305
H          2.61742        5.59752       -3.76487
H          3.97460        9.80195       -3.69913
H          5.56999        9.25997       -3.03802
H          5.35944        9.49358       -4.81311
C          5.53300       -0.70297       -0.77844
C          4.83657       -0.89507        0.39546
C          4.16041        0.27606        0.64794
C          4.46501        1.14032       -0.38915
N          5.30840        0.53347       -1.26139
C          3.93589        2.55829       -0.47866
N          3.09738        2.90038       -1.64676
C          1.87059        2.10536       -1.90216
H          4.83108       -1.78653        1.00785
H          6.18135       -1.42931       -1.25293
H          3.52475        0.48205        1.49704
H          3.35170        2.77995        0.44534
H          4.80715        3.24005       -0.47574
C          0.92644        2.18292       -0.69425
C          1.18476        2.73884       -3.12479
C          2.15037        0.62695       -2.26113
H          0.75106        3.24278       -0.44782
H         -0.04233        1.68381       -0.90805
H          1.37003        1.69869        0.19933
H          1.84768        2.67104       -4.01608
H          0.23239        2.21558       -3.36150
H          0.95916        3.80909       -2.94190
H          2.89516        0.55614       -3.08272
H          2.49629        0.03247       -1.39985
H          1.21520        0.12571       -2.59200
Mg         4.23455        2.74376       -3.22791
C          5.10405        5.21414        1.43092
C          5.54711        6.42362        0.94457
C          4.43147        7.17047        0.62486
C          3.34970        6.44086        0.89736
N          3.70030        5.18797        1.43562
C          1.94211        6.90462        0.71913
N          1.11499        5.87634        0.05836
C         -0.33452        6.27139       -0.05833
H          6.58010        6.72416        0.83693
H          5.73290        4.40028        1.76240
H          4.42982        8.18182        0.23519
H          1.94887        7.85302        0.14058
H          1.57416        7.09278        1.74210
C         -0.50321        7.48254       -1.00732
C         -1.17340        5.11121       -0.61230
C         -0.95559        6.63245        1.32631
H         -0.02921        7.27018       -1.98798
H         -1.57985        7.70567       -1.17155
H         -0.05538        8.40316       -0.58024
H         -1.14604        4.24022        0.07374
H         -2.24444        5.41308       -0.68801
H         -0.83549        4.81354       -1.62448
H         -0.85480        5.77905        2.03247
H         -0.50177        7.53172        1.78723
H         -2.03712        6.87094        1.22792
