110
speciation2290.ct
Na         1.00642        1.81291        0.26749
Mg        -0.33397        7.56874       -0.44915
C         -0.30557        3.42209        3.01866
C         -0.04601        1.15814        3.54316
O          0.30194        2.20008        2.58053
C          0.22600        3.89373        4.39948
C         -1.52209        0.92837        3.96773
H         -0.05381        4.21899        2.30317
H         -1.41985        3.35639        3.03698
H          0.40735        1.43321        4.48931
H          0.69354        0.41697        3.86855
H         -2.23696        0.85963        3.12534
H         -1.59424       -0.00321        4.57485
H         -1.85265        1.74151        4.65489
H          1.33451        3.93172        4.37427
H         -0.18617        4.88157        4.66902
H         -0.07802        3.23968        5.24754
H          2.21134        7.94777        0.04409
C          1.65034        9.50156        1.42158
C          1.42883        8.73359        0.10235
C          1.51733        8.61310        2.66539
H          2.68781        9.90948        1.40932
H          0.95262       10.36255        1.49677
H          2.21313        7.75003        2.58761
H          1.79928        9.20016        3.56907
C          0.08965        8.11800        2.85111
H          1.60241        9.44280       -0.73400
H         -0.58513        8.98524        3.01401
H         -0.23799        7.54850        1.95864
H          0.03044        7.45500        3.73773
C         -1.91274        0.61869       -0.08746
C         -2.37048       -0.67430       -0.25953
C         -1.25362       -1.48256       -0.35407
C         -0.16048       -0.64935       -0.22625
N         -0.56918        0.61832       -0.05404
C          1.28967       -1.08966       -0.23121
N          2.24500        0.03300       -0.00400
C          3.32030       -0.26739        0.98866
H         -3.40284       -0.99655       -0.29017
H         -2.52654        1.49752        0.05582
H         -1.24144       -2.55808       -0.47465
H          1.51890       -1.56120       -1.20937
H          1.37169       -1.88197        0.53363
C          4.15391       -1.50561        0.58938
C          4.26184        0.94441        1.07010
C          2.74207       -0.49557        2.38853
H          4.64283       -1.35075       -0.39351
H          4.94913       -1.69202        1.34492
H          3.54032       -2.42747        0.53501
H          3.70449        1.85682        1.37493
H          5.06307        0.76292        1.82163
H          4.74220        1.13196        0.08804
H          2.20607        0.42017        2.60866
H          2.07831       -1.38093        2.47199
H          3.53757       -0.61856        3.15397
Na         3.59933        0.09296       -1.94799
Mg         0.09177        6.63103       -3.80706
C          6.20654        0.60911       -3.43375
C          4.38674        0.86555       -4.95263
O          4.92508        0.15166       -3.85097
C          6.30930        2.11689       -3.15078
C          5.14626        0.59196       -6.25557
H          6.43488        0.08582       -2.48171
H          6.99295        0.28289       -4.14625
H          3.34723        0.50883       -5.10888
H          4.31474        1.95148       -4.75750
H          5.10986       -0.49003       -6.50291
H          4.67827        1.16422       -7.08421
H          6.20542        0.91354       -6.18407
H          5.52581        2.42859       -2.42831
H          7.30733        2.34445       -2.72199
H          6.22226        2.71524       -4.08168
H         -1.94310        9.23099        1.16931
C         -3.63973        8.07261        0.46055
C         -2.23808        8.73354        0.22817
C         -3.55720        6.93724        1.49962
H         -4.37227        8.84256        0.78206
H         -4.01752        7.65847       -0.49975
H         -2.79630        6.25546        1.10967
H         -3.21397        7.32237        2.48317
C         -4.80890        6.05119        1.69074
H         -2.36231        9.52754       -0.53997
H         -5.47405        6.32071        2.54412
H         -5.37258        5.88947        0.74384
H         -4.43492        5.06120        2.00838
C          1.68312        2.22990       -3.00157
C          1.86235        2.98333       -4.14998
C          1.86066        4.28857       -3.76015
C          1.67141        4.28146       -2.39327
N          1.57878        3.00112       -1.87853
C          1.46197        5.50569       -1.63996
N          0.13534        6.11845       -1.91208
C         -1.04242        5.24594       -1.67635
H          1.94808        2.64118       -5.18448
H          1.61423        1.14882       -3.01181
H          1.95215        5.15596       -4.41945
H          1.62656        5.36819       -0.55309
H          2.26959        6.26822       -1.94071
C         -0.99531        4.78191       -0.21576
C         -2.25686        6.10905       -2.00242
C         -1.22545        4.01588       -2.61753
H         -0.84914        5.65849        0.44743
H         -1.88939        4.19802        0.07953
H         -0.12196        4.12021       -0.04674
H         -3.21694        5.59831       -1.73009
H         -2.25700        6.36749       -3.08486
H         -2.16218        7.05740       -1.47134
H         -1.07508        4.28665       -3.68501
H         -2.25395        3.59266       -2.51029
H         -0.65764        3.14505       -2.36852
