96
speciation1094.ct
Na         1.05653        0.04934       -0.06611
Mg         5.12387       -2.71546       -4.07228
C         -1.74842       -0.15239       -1.38212
C         -1.88340        1.14347        0.58192
O         -1.26347        0.04934       -0.06611
C         -1.47242        1.00968       -2.34499
C         -1.29333        1.31456        1.97400
H         -1.22150       -1.04539       -1.78036
H         -2.82929       -0.41398       -1.36977
H         -1.72003        2.10061        0.04602
H         -2.97198        0.94242        0.69897
H         -0.21428        1.56804        1.90068
H         -1.81741        2.14176        2.49966
H         -1.41242        0.38172        2.56364
H         -0.39390        1.27251       -2.33428
H         -1.76097        0.70954       -3.37411
H         -2.07815        1.90290       -2.08914
H          7.49521       -1.83694       -5.29006
C          7.70377       -0.67045       -3.51453
C          6.81348       -1.30605       -4.59272
C          8.46959       -1.73240       -2.71763
H          8.44568        0.01616       -3.99724
H          7.06831       -0.06615       -2.83849
H          7.74065       -2.44913       -2.29230
H          9.16677       -2.27985       -3.39397
C          9.27039       -1.11803       -1.57008
H          6.35216       -0.48258       -5.17797
H         10.05028       -0.42333       -1.94830
H          8.59251       -0.56682       -0.88319
H          9.76806       -1.92855       -0.99492
C          2.99376       -3.94518       -2.31740
C          2.07437       -3.79497       -1.29374
C          2.24058       -2.50895       -0.82919
C          3.25848       -1.94076       -1.57688
N          3.70182       -2.80595       -2.53049
C          3.81699       -0.56344       -1.37105
N          3.42653        0.04934       -0.06611
C          3.78947        1.47391        0.04614
H          1.38484       -4.53184       -0.91918
H          3.12058       -4.86437       -2.86615
H          1.68163       -2.07649       -0.01052
H          3.46497        0.03219       -2.24263
H          4.91199       -0.66905       -1.41033
C          2.87206        2.33724       -0.85291
C          3.55471        1.85370        1.51031
C          5.26265        1.74281       -0.35106
H          1.80264        2.16049       -0.61672
H          3.08664        3.41677       -0.70978
H          3.02318        2.12239       -1.93020
H          4.15913        1.20171        2.16586
H          3.82415        2.91142        1.70890
H          2.48944        1.68838        1.78043
H          5.96234        1.12318        0.23887
H          5.43419        1.52391       -1.42811
H          5.51801        2.81356       -0.20908
Mg         4.08985       -1.11728        1.40328
C          6.16919       -4.09311       -6.48431
C          3.82498       -3.87182       -6.50395
O          5.01051       -3.75502       -5.73269
C          6.40264       -3.19177       -7.71097
C          2.59764       -3.59956       -5.66141
H          7.04525       -4.00464       -5.81329
H          6.14366       -5.16369       -6.79200
H          3.80258       -3.12773       -7.32488
H          3.72323       -4.90951       -6.90192
H          2.65358       -2.57946       -5.22657
H          1.68810       -3.67761       -6.29297
H          2.51430       -4.35948       -4.87117
H          6.37941       -2.12263       -7.41778
H          7.38651       -3.42203       -8.16985
H          5.63668       -3.36859       -8.49520
C          6.82959        1.61549        4.37519
C          7.09264        1.27145        3.06959
C          6.43229        0.07775        2.81409
C          5.77863       -0.28338        3.92147
N          6.00023        0.64786        4.96020
C          4.89687       -1.49130        4.10795
N          4.75318       -2.28389        2.87267
C          3.92711       -3.50733        2.98968
H          7.69882        1.84344        2.37943
H          7.19583        2.50035        4.88310
H          6.43101       -0.45539        1.87416
H          3.90502       -1.11641        4.43039
H          5.35004       -2.09760        4.91660
C          2.46628       -3.15970        3.35072
C          3.96304       -4.18525        1.62235
C          4.50058       -4.51228        4.01119
H          2.06311       -2.39080        2.65759
H          1.82194       -4.06339        3.28923
H          2.39022       -2.77739        4.39036
H          4.99863       -4.47444        1.34442
H          3.31152       -5.08556        1.58916
H          3.62909       -3.46440        0.87907
H          5.54701       -4.77785        3.74614
H          4.48237       -4.11386        5.04426
H          3.89482       -5.44535        4.01201
