110
speciation2223.ct
Na         0.36474        1.36840       -0.31574
Mg        -4.58901        1.83431        4.36618
C          1.96161        3.37076       -1.87884
C          0.56768        4.47161       -0.31065
O          0.84717        3.28103       -1.01417
C          3.28240        3.69810       -1.17911
C          0.05484        5.56824       -1.24905
H          2.05301        2.38745       -2.32565
H          1.76795        4.03233       -2.74868
H         -0.21636        4.24655        0.42459
H          1.42147        4.80924        0.30502
H         -0.81301        5.19862       -1.83700
H         -0.25132        6.45370       -0.65834
H          0.85180        5.89152       -1.95105
H          3.44243        3.00526       -0.32665
H          4.12071        3.59148       -1.89831
H          3.29055        4.74786       -0.82263
H         -6.89546        2.01523        5.74045
C         -7.32596        3.42016        4.13724
C         -6.35445        2.77157        5.13450
C         -7.85328        2.46348        3.05999
H         -8.18327        3.86465        4.69007
H         -6.81181        4.25191        3.62151
H         -8.48528        3.05695        2.36307
H         -7.00573        2.03718        2.48105
C         -8.71638        1.33604        3.62230
H         -6.00261        3.56026        5.83417
H         -8.11643        0.66031        4.26479
H         -9.56219        1.75412        4.20920
H         -9.13265        0.74059        2.78196
C         -4.04673        3.96245        2.61964
C         -3.45335        4.47031        1.49304
C         -2.74379        3.44213        0.93618
C         -2.93500        2.32294        1.71402
N         -3.75045        2.65581        2.75989
C         -2.36299        0.91884        1.47376
N         -1.68711        0.65328        0.14038
C         -2.58452        0.47026       -1.04147
H         -3.53914        5.48705        1.12829
H         -4.67134        4.52592        3.29165
H         -2.15852        3.53194        0.04383
H         -3.13798        0.16627        1.67599
H         -1.65715        0.78116        2.30041
C         -3.34158        1.73691       -1.45835
C         -1.68739        0.10676       -2.23365
C         -3.63029       -0.64841       -0.80802
H         -2.62698        2.53978       -1.73032
H         -3.94202        1.54230       -2.37018
H         -4.06448        2.05428       -0.68450
H         -1.06626       -0.76640       -2.01342
H         -2.29254       -0.10752       -3.14105
H         -0.98039        0.93205       -2.45913
H         -3.15393       -1.61878       -0.59895
H         -4.32096       -0.41172        0.02608
H         -4.27712       -0.76781       -1.70314
Na         5.85341        1.05520       -1.18244
Mg        -0.32143       -0.93067       -0.17979
C         -3.48960        1.23355        6.86795
C         -3.29217       -0.30266        5.04279
O         -4.09933        0.63232        5.72373
C         -2.04780        1.73251        6.69994
C         -3.19375       -1.62809        5.78617
H         -4.11087        2.11305        7.13786
H         -3.55245        0.54694        7.74272
H         -3.79518       -0.50828        4.07560
H         -2.29537        0.10184        4.77613
H         -4.21020       -2.04088        5.95771
H         -2.61231       -2.34381        5.16775
H         -2.67675       -1.49628        6.75818
H         -1.96361        2.37479        5.79932
H         -1.75431        2.32652        7.59317
H         -1.33864        0.88065        6.63189
H         -0.08416       -3.76237       -0.45415
C         -1.16381       -3.32736       -2.24847
C         -0.88279       -3.05908       -0.75655
C         -1.58478       -4.77842       -2.53506
H         -1.98841       -2.67313       -2.59593
H         -0.24218       -3.09224       -2.82399
H         -0.79430       -5.48403       -2.20009
H         -2.52510       -5.00874       -1.98785
C         -1.82646       -4.98751       -4.03289
H         -1.77944       -3.32387       -0.15865
H         -2.61992       -4.30112       -4.39978
H         -0.89318       -4.79693       -4.60519
H         -2.15028       -6.03252       -4.22574
C          3.93073        1.05358       -3.61599
C          2.71010        0.61729       -4.08647
C          2.10229       -0.07349       -3.04914
C          2.97616       -0.02010       -1.98354
N          4.09294        0.66168       -2.33486
C          2.84045       -0.69560       -0.64401
N          1.63504       -0.41279        0.20342
C          1.79336       -0.97868        1.58562
H          2.31376        0.78602       -5.07904
H          4.66634        1.61749       -4.17627
H          1.14162       -0.55958       -3.07615
H          3.75778       -0.38605       -0.10515
H          2.90500       -1.77592       -0.85572
C          2.90364       -0.27095        2.39944
C          0.49016       -0.77895        2.35408
C          2.07843       -2.50150        1.55297
H          2.70621        0.82023        2.45653
H          2.92583       -0.67469        3.43639
H          3.91890       -0.43392        1.99320
H         -0.36981       -1.24645        1.83034
H          0.54592       -1.23763        3.36587
H          0.34248        0.30710        2.48558
H          1.27494       -3.02884        1.01754
H          3.04594       -2.74707        1.07131
H          2.12504       -2.92103        2.57948
