81
speciation766.ct
Na         2.47164        0.71031       -3.18898
Mg         6.24492        1.76676       -0.72831
C          5.90358        2.31324        2.12405
C          8.07469        1.97775        1.25693
O          6.70106        1.62676        1.15210
C          5.97186        3.83956        2.05981
C          8.71258        1.57128        2.59653
H          4.86262        2.02100        1.99299
H          6.09344        1.94254        3.15236
H          8.62401        1.43446        0.46300
H          8.23616        3.05921        1.06078
H          8.61591        0.47658        2.75101
H          9.78843        1.84408        2.59186
H          8.25480        2.10405        3.45511
H          5.90095        4.17364        1.01009
H          5.13602        4.27195        2.65294
H          6.92212        4.21147        2.48797
H          3.46193        2.68301       -5.63447
C          2.14142        4.32595       -5.35490
C          2.74872        3.00306       -4.85751
C          3.19949        5.43802       -5.36436
H          1.72482        4.19291       -6.37740
H          1.27385        4.60786       -4.72764
H          3.68756        5.51409       -4.37236
H          3.98381        5.19896       -6.11381
C          2.57785        6.79742       -5.67042
H          1.92388        2.25707       -4.84711
H          2.09640        6.79531       -6.67013
H          1.81877        7.05089       -4.89787
H          3.36808        7.57768       -5.64857
C          3.80813        0.01266       -6.01092
C          5.04545       -0.30064       -6.54866
C          5.96033       -0.20457       -5.53143
C          5.26388        0.19794       -4.41238
N          3.94122        0.27336       -4.69106
C          5.88743        0.48648       -3.07323
N          5.77702        1.91037       -2.65718
C          6.74636        2.84964       -3.31362
H          5.25850       -0.56017       -7.57717
H          2.87457        0.01436       -6.53718
H          7.03232       -0.37530       -5.59878
H          6.93661        0.15011       -3.05198
H          5.39181       -0.15137       -2.33324
C          6.59859        2.91634       -4.85188
C          6.46794        4.25972       -2.79230
C          8.21609        2.49908       -2.97811
H          5.55118        3.10702       -5.13861
H          7.21903        3.73243       -5.27999
H          6.97218        2.00833       -5.34149
H          6.56904        4.30251       -1.68734
H          7.17247        4.99713       -3.23979
H          5.44755        4.55490       -3.09297
H          8.37578        2.49509       -1.88047
H          8.52168        1.51800       -3.39086
H          8.90439        3.24395       -3.43391
Mg         3.84536        2.63052       -2.90065
C          3.34031       -1.28013       -1.16288
C          4.08444       -1.44581       -0.01667
C          4.30887       -0.18819        0.49171
C          3.66643        0.71283       -0.34775
N          3.12543        0.03445       -1.37087
C          3.62038        2.23506       -0.21949
N          2.76980        2.86900       -1.23498
C          2.31461        4.25023       -0.89460
H          4.46187       -2.38112        0.37731
H          3.03629       -2.06361       -1.82911
H          4.90245       -0.02014        1.36925
H          3.19654        2.42723        0.77432
H          4.62320        2.68376       -0.28605
C          3.48764        5.23195       -0.66758
C          1.51795        4.76534       -2.07619
C          1.38398        4.28864        0.33456
H          4.15790        5.25625       -1.53997
H          3.11366        6.26899       -0.51525
H          4.06280        4.96017        0.22955
H          0.67716        4.07952       -2.32134
H          1.12190        5.78997       -1.91006
H          2.23095        4.81753       -2.89532
H          0.52260        3.60423        0.19311
H          1.90785        4.03005        1.27444
H          0.99135        5.32003        0.48145
