96
speciation1489.ct
Na         4.50730        0.68924        3.28719
Mg         1.97220        4.55362       -0.67825
C         -0.41006        4.70189        1.20029
C          1.70939        4.51438        2.30518
O          1.00756        4.73152        1.07400
C         -0.95889        5.83774        2.08007
C          1.25445        3.30704        3.15193
H         -0.84566        4.82052        0.18781
H         -0.77860        3.72257        1.56831
H          2.77482        4.36120        2.06171
H          1.67784        5.43477        2.92740
H          1.32821        2.36377        2.58639
H          1.90738        3.20259        4.04294
H          0.21595        3.41588        3.52708
H         -0.66704        6.82768        1.67729
H         -2.06689        5.77816        2.11628
H         -0.59079        5.76000        3.12377
H          4.12853        6.11944       -1.43414
C          4.74821        6.26655        0.62502
C          3.63957        6.13421       -0.44272
C          5.63251        7.52690        0.39673
H          4.27397        6.34645        1.62614
H          5.39233        5.36563        0.59550
H          6.12347        7.46326       -0.59729
H          5.01137        8.44982        0.41941
C          6.72817        7.66993        1.45822
H          3.06153        7.07702       -0.33643
H          6.28386        7.81487        2.46802
H          7.37951        6.77053        1.47358
H          7.36498        8.55421        1.23357
C          5.50901       -0.87969        0.84696
C          5.65101       -0.90403       -0.51275
C          5.08516        0.25780       -0.97994
C          4.59105        0.94086        0.11504
N          4.87623        0.24931        1.23630
C          3.85172        2.27297        0.10237
N          2.87560        2.51984       -1.00117
C          1.79385        1.50084       -1.19922
H          6.09675       -1.69303       -1.11551
H          5.87095       -1.64092        1.53013
H          5.01072        0.53020       -1.99711
H          3.37209        2.41007        1.08878
H          4.62936        3.06382        0.01252
C          0.85569        1.49075        0.00799
C          1.08310        1.93808       -2.44964
C          2.18723        0.02589       -1.47428
H          0.51504        2.50718        0.21443
H         -0.03771        0.85219       -0.16916
H          1.39107        1.06860        0.88296
H          1.70602        1.78821       -3.35398
H          0.09425        1.44570       -2.58397
H          1.02637        2.99846       -2.34474
H          2.83750       -0.06556       -2.36466
H          2.63054       -0.47873       -0.59578
H          1.27116       -0.56845       -1.70032
Mg         3.90099        2.70071       -2.73787
C          0.80299        6.68655       -2.37353
C         -0.53795        4.81037       -2.82107
O          0.72893        5.26612       -2.27276
C         -0.29418        7.44237       -1.61332
C         -0.63149        4.95129       -4.35523
H          1.76583        6.99913       -1.97250
H          0.87165        7.02488       -3.42831
H         -0.76701        3.75972       -2.59634
H         -1.40877        5.27620       -2.33209
H          0.17592        4.37114       -4.85959
H         -1.60945        4.56419       -4.70622
H         -0.57288        6.00607       -4.68777
H         -0.34725        7.06765       -0.57648
H         -0.07284        8.52644       -1.60501
H         -1.28535        7.33899       -2.10117
C          4.17927        0.52748       -5.03661
C          5.34704        0.09410       -5.64982
C          6.38846        0.80289       -5.07975
C          5.80014        1.63104       -4.15093
N          4.47660        1.46404       -4.12060
C          6.39604        2.69394       -3.29772
N          5.47451        3.84433       -3.35121
C          5.54091        4.69220       -4.58542
H          5.43015       -0.64684       -6.43192
H          3.17809        0.18457       -5.25814
H          7.43989        0.73950       -5.31907
H          7.45112        2.91825       -3.52884
H          6.37237        2.34192       -2.24848
C          5.19883        3.93828       -5.89387
C          4.51848        5.83009       -4.43846
C          6.94420        5.32349       -4.72880
H          4.19057        3.47587       -5.83691
H          5.20080        4.63841       -6.75635
H          5.95632        3.17412       -6.14343
H          4.75760        6.45836       -3.55833
H          4.53574        6.49017       -5.33323
H          3.49106        5.42138       -4.32567
H          7.21036        5.89015       -3.81131
H          7.72389        4.55545       -4.90795
H          6.97958        6.01440       -5.59724
