96
speciation1556.ct
Na         4.97963        4.04836        2.92218
Mg         4.11156        2.82057       -2.83692
C          5.61823        5.81404       -2.28741
C          6.99755        4.21083       -3.23986
O          5.75254        4.37216       -2.55812
C          5.34077        6.72273       -3.45801
C          8.25024        4.50175       -2.36849
H          4.75174        6.09226       -1.74439
H          6.35427        6.20700       -1.56137
H          7.10696        3.19050       -3.58829
H          7.02191        4.82002       -4.16125
H          8.41341        3.70758       -1.61402
H          9.15030        4.57512       -3.01501
H          8.22318        5.46292       -1.82748
H          4.47773        6.26217       -3.92504
H          4.94956        7.70891       -3.12261
H          6.21160        6.89722       -4.12253
H          4.88611        0.25750       -1.71725
C          5.57622       -0.39490       -3.58661
C          4.60712        0.48599       -2.76358
C          6.98410        0.15866       -3.50200
H          5.54867       -1.45453       -3.25899
H          5.30483       -0.46920       -4.64208
H          6.92653        1.20397       -3.79890
H          7.37960        0.08739       -2.46375
C          7.90131       -0.52754       -4.50201
H          3.59258        0.04202       -2.90520
H          8.02572       -1.59442       -4.23331
H          7.46199       -0.45248       -5.52213
H          8.88681       -0.01782       -4.51924
C          2.39068        2.45725        3.68556
C          1.43773        1.59027        3.19151
C          1.80496        1.29313        1.89501
C          2.96131        2.00477        1.64227
N          3.32494        2.70128        2.74434
C          3.69051        2.07281        0.31726
N          2.86780        2.64074       -0.80396
C          2.32444        4.00451       -0.51169
H          0.55784        1.23791        3.71229
H          2.38312        2.91003        4.67038
H          1.26589        0.66106        1.20536
H          4.62834        2.65694        0.44659
H          3.99670        1.04574        0.06921
C          3.48784        4.89722       -0.21839
C          1.60579        4.39319       -1.78046
C          1.34137        4.24838        0.66117
H          4.24682        4.46628       -0.85712
H          3.21414        5.96799       -0.34771
H          3.93946        4.77922        0.78326
H          0.66137        3.81313       -1.87975
H          1.37750        5.47929       -1.82454
H          2.28086        4.08917       -2.58097
H          0.45519        3.59201        0.62742
H          1.82092        4.19995        1.64986
H          1.00911        5.31249        0.63659
Mg         0.77264        6.80661       -7.66885
C         -1.38727        7.43249       -9.78110
C         -2.02348        8.11170       -7.67305
O         -1.07456        7.32611       -8.38806
C         -0.59246        6.45915      -10.63855
C         -1.83713        7.95651       -6.18031
H         -2.45984        7.16771       -9.96363
H         -1.20739        8.46568      -10.15489
H         -1.97241        9.19499       -7.94324
H         -3.05857        7.74499       -7.88512
H         -0.92455        8.49779       -5.86300
H         -2.71839        8.37859       -5.64526
H         -1.75220        6.87925       -5.93448
H         -0.74680        5.41332      -10.30112
H         -0.94454        6.53217      -11.69399
H          0.48259        6.71977      -10.60970
C          3.82816        6.93194       -7.41865
C          4.99675        6.38632       -6.91545
C          4.61253        5.39942       -6.06276
C          3.22319        5.38634       -6.05621
N          2.72527        6.31883       -6.91716
C          2.39535        4.42347       -5.25520
N          3.05024        3.10874       -4.99306
C          3.20161        2.32133       -6.31785
H          6.02364        6.64810       -7.14874
H          3.80210        7.72767       -8.14265
H          5.27485        4.74217       -5.50937
H          1.40190        4.29615       -5.71461
H          2.15307        4.96412       -4.34229
C          4.20990        2.90805       -7.35848
C          3.71421        0.95096       -5.99568
C          1.87922        2.13230       -7.11284
H          5.23291        3.02640       -6.94887
H          4.31439        2.24918       -8.24753
H          3.83159        3.83343       -7.83010
H          2.95103        0.32446       -5.48481
H          4.06451        0.39441       -6.89983
H          4.56549        1.20280       -5.36314
H          1.10605        1.60914       -6.51766
H          1.47813        3.09291       -7.49506
H          2.07225        1.51749       -8.02548
