110
speciation2500.ct
Na         2.53277       -0.60681        1.53949
Mg         2.13702        4.72846       -0.87416
C         -0.24263        4.97588        1.14093
C          1.84057        4.42645        2.13004
O          1.15318        4.78925        0.92710
C         -0.54117        6.18987        2.04497
C          1.23787        3.23781        2.93235
H         -0.72591        5.09976        0.17012
H         -0.74202        4.06550        1.53017
H          2.88062        4.18793        1.87546
H          1.94302        5.30051        2.80194
H          1.11575        2.33580        2.31917
H          1.89600        2.97197        3.78243
H          0.24609        3.48537        3.37041
H         -0.09946        7.11439        1.62200
H         -1.63562        6.33112        2.15683
H         -0.13509        6.04365        3.06903
H          4.48216        5.47119        0.17634
C          3.95033        7.49319       -0.24251
C          3.90616        5.99645       -0.60934
C          3.32435        7.77883        1.13070
H          5.02051        7.80519       -0.21039
H          3.43977        8.09524       -1.02406
H          2.24937        7.51346        1.10140
H          3.82483        7.16296        1.91075
C          3.46836        9.25136        1.52941
H          4.44060        5.87477       -1.57476
H          4.54032        9.52835        1.63698
H          2.99707        9.91367        0.77174
H          2.97097        9.42086        2.50982
C          5.29636       -0.82665        0.25460
C          6.29881       -0.18780       -0.43834
C          5.86102        1.10258       -0.65882
C          4.59384        1.18666       -0.12889
N          4.27301        0.01795        0.47313
C          3.74471        2.43602       -0.11194
N          2.86715        2.70568       -1.28827
C          1.74094        1.70182       -1.47710
H          7.24433       -0.62129       -0.73530
H          5.31022       -1.85610        0.59260
H          6.40440        1.89827       -1.14630
H          3.17085        2.41837        0.81907
H          4.45712        3.27642       -0.02153
C          0.86465        1.55856       -0.22650
C          0.81641        2.16125       -2.60911
C          2.22274        0.28652       -1.90204
H          0.46106        2.54144        0.06838
H          0.00769        0.87422       -0.40486
H          1.44411        1.10976        0.59510
H          1.36837        2.18391       -3.56330
H         -0.02808        1.44971       -2.74877
H          0.36562        3.13986       -2.37365
H          2.94150        0.32690       -2.74514
H          2.64352       -0.30030       -1.08415
H          1.35990       -0.34352       -2.21707
Na         4.17714        2.31410       -3.22411
Mg         5.15234        0.07717       -5.82533
C          1.67516        5.01443       -3.70857
C          0.38486        6.68716       -2.73604
O          1.09761        5.46959       -2.48039
C          2.61364        5.98682       -4.43933
C         -0.26479        7.29811       -1.51532
H          2.30708        4.14741       -3.47191
H          0.87437        4.65699       -4.40073
H          1.04361        7.48791       -3.12847
H         -0.44521        6.48933       -3.45829
H          0.50643        7.53556       -0.75603
H         -0.77659        8.23927       -1.81323
H         -1.05693        6.64208       -1.13063
H          3.40395        6.34155       -3.75207
H          3.09975        5.46001       -5.28451
H          2.07502        6.84623       -4.88935
H          4.87721       -1.84497       -7.61556
C          3.45751       -2.32512       -6.01498
C          4.80912       -1.81453       -6.50742
C          2.31915       -1.45032       -6.53354
H          3.31035       -3.37364       -6.35292
H          3.46324       -2.30261       -4.90307
H          2.49634       -0.41730       -6.20224
H          2.29671       -1.47301       -7.64427
C          0.96650       -1.89966       -5.98890
H          5.60607       -2.46040       -6.08223
H          0.74478       -2.93850       -6.31104
H          0.96092       -1.84919       -4.87848
H          0.17087       -1.22689       -6.37424
C          1.42730        2.22022       -6.32797
C          1.55872        3.23540       -7.25132
C          2.88927        3.59951       -7.27983
C          3.55366        2.83582       -6.39569
N          2.67121        1.93597       -5.75576
C          5.02799        2.91303       -6.16042
N          5.48714        1.92251       -5.15995
C          6.94975        1.97071       -4.88914
H          0.75915        3.66319       -7.83929
H          0.50581        1.71704       -6.07613
H          3.33479        4.36273       -7.90226
H          5.23588        3.94498       -5.81455
H          5.52244        2.73615       -7.13519
C          7.35098        3.31568       -4.24146
C          7.27347        0.82791       -3.92561
C          7.79871        1.73381       -6.16139
H          6.75302        3.50576       -3.32489
H          8.42848        3.31280       -3.96720
H          7.21207        4.16812       -4.93881
H          7.04871       -0.15639       -4.38417
H          8.34494        0.84765       -3.62288
H          6.64671        0.91759       -3.03815
H          7.53378        0.76120       -6.62913
H          7.67680        2.54007       -6.91136
H          8.88009        1.70819       -5.90062
