95
speciation1396.ct
Na         0.86693       -0.26436       -0.37529
Mg        -4.44645        1.02669       -3.01638
C         -1.33879       -2.92364       -0.89650
C         -0.79141       -2.41974        1.32432
O         -0.50290       -2.12655       -0.02670
C         -2.86977       -2.83234       -0.63896
C          0.08994       -1.57958        2.21148
H         -1.16543       -2.60050       -1.93918
H         -1.04879       -4.00372       -0.86425
H         -1.83162       -2.12484        1.57668
H         -0.61380       -3.49721        1.55799
H          0.03681       -0.53767        1.88933
H         -0.19587       -1.69365        3.27202
H          1.12679       -1.85906        2.13000
H         -3.18733       -1.78039       -0.49380
H         -3.44283       -3.25655       -1.49452
H         -3.17148       -3.42964        0.25347
H         -6.38594        2.73989       -2.32804
C         -6.86112        0.79101       -1.47647
C         -6.38785        1.68141       -2.63319
C         -5.90947        0.82083       -0.26755
H         -7.89070        1.07145       -1.15808
H         -6.88966       -0.25284       -1.85438
H         -6.25231        0.05433        0.46176
H         -4.88205        0.54991       -0.59394
C         -5.88701        2.16775        0.45348
H         -7.09063        1.55843       -3.48405
H         -5.50735        2.97293       -0.20699
H         -6.90815        2.42883        0.80582
H         -5.21702        2.10040        1.33733
C         -2.22826       -0.51882       -4.36876
C         -0.87083       -0.74267       -4.25558
C         -0.43154       -0.00281       -3.16912
C         -1.55026        0.63313       -2.67000
N         -2.64614        0.32508       -3.40455
C         -1.62079        1.54938       -1.48882
N         -0.31437        1.74001       -0.81856
C         -0.39130        2.72560        0.30977
H         -0.26442       -1.36566       -4.88633
H         -2.89804       -0.96144       -5.12890
H          0.57635        0.05983       -2.79336
H         -2.35880        1.11903       -0.78811
H         -1.99953        2.51130       -1.88977
C         -1.28849        2.22157        1.45970
C          1.02442        2.92291        0.83995
C         -0.91576        4.12390       -0.11970
H         -0.94549        1.25444        1.83294
H         -1.26610        2.93067        2.31509
H         -2.34666        2.12046        1.14946
H          1.68804        3.32869        0.04477
H          1.04283        3.63278        1.69779
H          1.40833        1.94388        1.17619
H         -0.29128        4.56392       -0.92481
H         -1.97465        4.10162       -0.44691
H         -0.89061        4.82265        0.74818
Na         0.89125        2.72458       -2.29378
Mg         4.52549        0.59000       -1.46527
H          6.43837        1.96633       -2.39769
C          5.18359        2.04558       -4.12823
C          5.74935        1.28591       -2.94157
C          4.19491        1.19831       -4.92316
H          4.67635        2.96185       -3.75710
H          6.03164        2.34729       -4.78353
H          4.69021        0.27055       -5.28569
H          3.34100        0.91922       -4.26866
C          3.67879        1.98708       -6.12299
H          6.33326        0.40667       -3.28803
H          3.19687        2.92929       -5.78421
H          4.51953        2.23736       -6.80622
H          2.93370        1.38240       -6.67914
C          3.79787        3.48754        3.31517
C          4.29160        4.02913        2.14997
C          4.32976        3.01739        1.19135
C          3.86511        1.89998        1.75623
N          3.48702        2.14135        3.10009
C          3.94365        0.48904        1.23208
N          3.33162       -0.08885       -0.02515
C          3.83957       -1.57085       -0.03560
H          4.63539        5.04948        2.04545
H          3.68366        3.99956        4.26427
H          4.75651        3.10051        0.20321
H          3.60969       -0.08452        2.10287
H          5.03719        0.43211        1.14287
C          3.40301       -2.48261        1.17896
C          3.32642       -2.33004       -1.27405
C          5.40566       -1.70255       -0.08892
H          2.40310       -2.91791        1.02507
H          4.01792       -3.40959        1.21756
H          3.52780       -2.09250        2.20683
H          3.70495       -1.89380       -2.21583
H          3.67829       -3.39315       -1.23185
H          2.21745       -2.36732       -1.28359
H          5.82787       -1.23433       -0.99790
H          5.94346       -1.34317        0.81088
H          5.70481       -2.77666       -0.11673
