96
speciation1027.ct
Na         0.76313       -0.31891       -0.02571
Mg         1.00296       -0.00112        3.53695
C          0.75867       -3.47115       -0.87247
C         -1.44200       -2.93243       -0.20224
O         -0.06168       -2.51754       -0.18794
C          0.31056       -3.89793       -2.27557
C         -1.73669       -4.04567        0.81805
H          1.72157       -2.98098       -1.05837
H          0.94461       -4.36217       -0.23008
H         -2.11692       -2.07899       -0.01454
H         -1.80967       -3.20980       -1.19904
H         -1.47428       -3.73356        1.85021
H         -2.81953       -4.29971        0.79386
H         -1.17443       -4.97418        0.57652
H          0.12606       -2.99353       -2.89005
H          1.11326       -4.50565       -2.74442
H         -0.58564       -4.55113       -2.25278
H          0.33781       -2.40609        4.62633
C          2.26395       -2.00595        5.50943
C          1.28966       -1.91702        4.33843
C          1.69487       -1.33160        6.75474
H          2.45246       -3.07696        5.72331
H          3.21739       -1.52242        5.24411
H          1.50329       -0.25973        6.54743
H          0.73769       -1.81708        7.03723
C          2.67993       -1.45609        7.91439
H          1.71077       -2.48168        3.49034
H          2.86027       -2.52889        8.14708
H          3.64691       -0.97590        7.65310
H          2.26233       -0.96055        8.81273
C          2.08364        2.33129        5.22532
C          2.12096        3.68694        4.96000
C          1.53355        3.86353        3.71780
C          1.16186        2.60449        3.29551
N          1.49435        1.69023        4.20475
C          0.47824        2.24510        2.00180
N          0.05916        0.81328        1.98724
C         -1.35629        0.59350        2.42500
H          2.53395        4.46052        5.59656
H          2.47165        1.84997        6.11379
H          1.39943        4.80124        3.19526
H          1.17149        2.44564        1.16697
H         -0.38541        2.92922        1.87164
C         -2.39728        1.25222        1.48593
C         -1.55796       -0.90462        2.39661
C         -1.62955        1.04610        3.87771
H         -2.25012        0.92874        0.44578
H         -3.42694        0.95966        1.79003
H         -2.38428        2.35879        1.52444
H         -0.98364       -1.41589        3.17774
H         -2.62467       -1.20867        2.47222
H         -1.10331       -1.20682        1.47306
H         -0.93589        0.54025        4.58337
H         -1.53154        2.14338        3.99807
H         -2.66446        0.76232        4.17611
Mg         3.12161        4.01271        0.79702
C          0.63670        1.53548       -2.68564
C         -1.52987        0.78587       -2.14751
O         -0.13211        0.67030       -1.86954
C          0.33382        3.04033       -2.54644
C         -1.91685        0.58368       -3.63134
H          1.65746        1.34349       -2.40602
H          0.60322        1.22292       -3.75080
H         -2.05413       -0.01146       -1.58841
H         -1.92331        1.75970       -1.78508
H         -1.57172       -0.40791       -3.99086
H         -3.01859        0.64697       -3.74678
H         -1.50066        1.37322       -4.29522
H          0.52121        3.38393       -1.50888
H          0.98715        3.61084       -3.24175
H         -0.70177        3.29897       -2.84430
C          3.36645        3.72814       -2.15020
C          3.70976        2.80943       -3.12422
C          4.03588        1.63867       -2.46799
C          3.83149        1.89465       -1.12168
N          3.45907        3.16496       -0.93745
C          4.08624        0.97955        0.01268
N          3.28904       -0.27898        0.04999
C          3.87489       -1.17110        1.12189
H          3.71022        2.97439       -4.19385
H          3.06754        4.75014       -2.31875
H          4.34714        0.70611       -2.91354
H          3.91702        1.56604        0.93151
H          5.16749        0.76913       -0.09359
C          3.77468       -0.50872        2.51057
C          3.10903       -2.48737        1.15134
C          5.37054       -1.56272        0.90357
H          2.74595       -0.17094        2.68811
H          4.09357       -1.22516        3.28862
H          4.45678        0.35982        2.61805
H          3.33809       -3.05884        0.23470
H          3.43360       -3.13314        2.00323
H          2.02400       -2.28436        1.25015
H          5.51833       -2.04593       -0.08586
H          6.08397       -0.72426        1.00862
H          5.68921       -2.29260        1.68127
