95
speciation1801.ct
Na         0.99202        0.03837        0.09200
Mg        -4.48291        3.24128       -0.40765
C         -5.92861        3.71711        2.19375
C         -7.12450        3.15119        0.22581
O         -5.94774        3.71056        0.77457
C         -6.20216        2.36556        2.86817
C         -7.01049        3.15369       -1.29430
H         -4.92307        4.06319        2.50790
H         -6.64905        4.47798        2.57024
H         -7.25661        2.08836        0.51873
H         -8.00924        3.76441        0.50419
H         -6.14772        2.53057       -1.61510
H         -7.93271        2.72719       -1.74289
H         -6.86950        4.18835       -1.67164
H         -5.51434        1.59038        2.47554
H         -6.05216        2.46605        3.96356
H         -7.25619        2.04715        2.71889
H          3.68409       -3.53496        2.71554
C          1.75555       -2.66087        2.27641
C          3.25206       -2.52995        2.54321
C          1.51513       -3.54246        1.05629
H          1.24422       -3.10766        3.15682
H          1.32862       -1.64716        2.10249
H          2.02336       -3.08804        0.20020
H          1.90776       -4.56700        1.21233
C          0.04437       -3.60774        0.73177
H          3.37725       -1.94257        3.47436
H         -0.53723       -4.07264        1.55637
H         -0.26799       -2.55959        0.59074
H         -0.12632       -4.18238       -0.20481
C         -2.89070        3.08065       -2.92344
C         -1.70116        2.61455       -3.44955
C         -1.02632        1.98675       -2.42215
C         -1.83443        2.09486       -1.30405
N         -2.98032        2.75989       -1.62034
C         -1.50625        1.52571        0.06566
N         -1.37798        0.03837        0.09200
C         -2.68732       -0.65054       -0.34005
H         -1.36635        2.71910       -4.47150
H         -3.65369        3.62399       -3.46495
H         -0.06094        1.50185       -2.48431
H         -2.25524        1.86451        0.80407
H         -0.55213        1.96907        0.40802
C         -3.02919       -0.55447       -1.86001
C         -2.65408       -2.16171       -0.07502
C         -3.89874       -0.11505        0.47624
H         -2.21531       -0.97136       -2.48808
H         -3.95768       -1.12922       -2.07887
H         -3.30117        0.43497       -2.23323
H         -2.46944       -2.39243        0.99215
H         -3.63604       -2.62900       -0.33122
H         -1.92790       -2.65680       -0.75283
H         -3.71860       -0.24480        1.56509
H         -4.11993        0.95009        0.26930
H         -4.83173       -0.66218        0.21860
Na        -1.32756       -0.41178        2.18178
Mg         4.24364       -1.58164        0.89797
H          6.75963       -1.66065       -0.03590
C          6.89881       -3.31523        1.35766
C          6.38804       -1.92531        0.97686
C          6.35447       -4.38967        0.43535
H          8.02848       -3.30090        1.32712
H          6.60024       -3.52026        2.40667
H          5.24390       -4.37419        0.49431
H          6.66595       -4.17946       -0.60848
C          6.85736       -5.77119        0.84318
H          6.82161       -1.19529        1.69448
H          7.96527       -5.82012        0.76628
H          6.55746       -5.99953        1.88907
H          6.41912       -6.53542        0.17211
C          3.27104       -1.19485       -4.55927
C          2.88379       -2.23184       -3.74498
C          3.01327       -1.79772       -2.42782
C          3.47099       -0.54610       -2.44223
N          3.66650       -0.11193       -3.76934
C          3.78109        0.38072       -1.30379
N          3.36202        0.03837        0.09200
C          3.64712        1.22589        0.98818
H          2.53244       -3.19649       -4.08493
H          3.28063       -1.19825       -5.64168
H          2.79828       -2.38494       -1.56234
H          3.24228        1.28581       -1.62333
H          4.87066        0.54597       -1.36867
C          2.82199        2.48790        0.59663
C          3.25795        0.87456        2.42616
C          5.14703        1.62897        1.00034
H          1.74030        2.26076        0.57026
H          2.98344        3.30429        1.33473
H          3.12094        2.93326       -0.37323
H          3.90004        0.05811        2.79640
H          3.42269        1.74439        3.10265
H          2.18754        0.58828        2.48882
H          5.78237        0.77616        1.29476
H          5.49512        2.01848        0.02246
H          5.32436        2.45560        1.72231
