96
speciation1363.ct
Na         0.69333       -1.30551       -0.37743
Mg         2.30221       -0.20382        1.39305
C         -0.58007       -3.59930       -2.41607
C         -0.54706       -4.61605       -0.27363
O         -0.00708       -3.54022       -1.11239
C         -2.10599       -3.49542       -2.40212
C         -0.30398       -6.10099       -0.74468
H         -0.15852       -2.74231       -2.96381
H         -0.23907       -4.48258       -3.00327
H         -0.20062       -4.55231        0.77706
H         -1.65010       -4.49396       -0.15599
H          0.64021       -6.51490       -0.34478
H         -1.12693       -6.75903       -0.36977
H         -0.31199       -6.25750       -1.83993
H         -2.39512       -2.72963       -1.65500
H         -2.48582       -3.21950       -3.40191
H         -2.57431       -4.46896       -2.12693
H          3.23364       -0.49018        4.05034
C          1.36260        0.65504        4.12312
C          2.71048        0.33482        3.53996
C          1.54708        1.15204        5.55264
H          0.83719        1.43037        3.52049
H          0.77561       -0.28367        4.08848
H          2.16137        0.40506        6.09691
H          2.08870        2.13037        5.57186
C          0.19636        1.29924        6.22194
H          3.34322        1.22904        3.77584
H         -0.34791        2.16308        5.78597
H         -0.39459        0.37255        6.06303
H          0.33663        1.45317        7.31008
C         -2.44189       -0.74335        0.59158
C         -3.09127        0.45782        0.82085
C         -2.18110        1.44786        0.56260
C         -1.03076        0.82119        0.15501
N         -1.16220       -0.51797        0.20693
C          0.15445        1.55344       -0.37510
N          1.43932        1.06465        0.11501
C          2.45912        2.20659        0.20726
H         -4.11959        0.61219        1.11611
H         -2.90228       -1.71827        0.68878
H         -2.34389        2.51986        0.60134
H         -0.00364        2.62393       -0.19500
H          0.19321        1.38236       -1.45997
C          2.02858        3.42359        1.11915
C          3.73481        1.70171        0.88836
C          2.80693        2.80824       -1.16111
H          1.68617        3.10998        2.13195
H          2.90286        4.10366        1.30325
H          1.26357        4.08640        0.67227
H          4.04607        0.67704        0.66344
H          4.57045        2.43360        0.96669
H          3.47068        1.62836        1.87551
H          3.11858        2.06517       -1.90581
H          1.92685        3.32774       -1.58462
H          3.61569        3.56766       -1.03099
Mg         5.51516       -3.93300       -2.52724
C          5.20172       -6.44605       -4.33205
C          4.82312       -6.64186       -1.98656
O          5.44501       -5.88226       -3.03736
C          3.72879       -6.61992       -4.77219
C          5.37762       -8.07591       -1.82986
H          5.72011       -5.82469       -5.08492
H          5.71273       -7.42948       -4.41736
H          5.05370       -6.12754       -1.03270
H          3.72093       -6.65813       -2.08753
H          6.45940       -8.07024       -1.57557
H          4.82934       -8.58916       -1.01201
H          5.22147       -8.69385       -2.73593
H          3.21151       -5.64280       -4.82846
H          3.70497       -7.08391       -5.78567
H          3.15669       -7.31012       -4.11566
C          6.74841       -1.16283       -2.09203
C          6.54133        0.15035       -1.74002
C          5.23332        0.24933       -1.44382
C          4.66358       -1.00809       -1.57201
N          5.60766       -1.89193       -2.02474
C          3.19756       -1.30932       -1.33017
N          2.77646       -1.67001        0.05407
C          3.24120       -2.94616        0.63731
H          7.23674        0.98272       -1.69914
H          7.70652       -1.54271       -2.38658
H          4.82137        1.18338       -1.18117
H          2.81514       -2.01758       -2.08994
H          2.64649       -0.38212       -1.60399
C          4.77296       -2.97481        0.84502
C          2.53896       -3.08352        2.01234
C          2.95967       -4.13832       -0.29883
H          5.28937       -3.29222       -0.08153
H          5.03473       -3.77236        1.57555
H          5.20562       -2.00065        1.13985
H          1.43113       -3.15143        1.93297
H          2.90042       -3.96467        2.58104
H          2.75337       -2.18804        2.62558
H          1.92326       -4.32800       -0.47291
H          3.42167       -3.95932       -1.29377
H          3.37404       -5.07730        0.10261
