95
speciation1795.ct
Na         1.11847        0.52320        2.36711
Mg         2.13965        4.62210       -1.10941
C          1.77583        7.28718       -2.35249
C          2.13286        7.10419       -0.02047
O          1.61251        6.48949       -1.16563
C          3.22429        7.64491       -2.71320
C          1.37005        8.36918        0.39094
H          1.31069        6.75353       -3.18391
H          1.15047        8.20159       -2.31182
H          2.02430        6.38030        0.81296
H          3.21995        7.29125       -0.11952
H          0.31901        8.11952        0.64872
H          1.86991        8.81576        1.27340
H          1.37380        9.14365       -0.40121
H          3.84856        6.73339       -2.78856
H          3.23902        8.17264       -3.69094
H          3.66961        8.33607       -1.97081
H          6.60810        3.62965       -3.21760
C          6.77066        3.67009       -1.07827
C          5.90203        3.69605       -2.36010
C          7.77707        4.83351       -0.97728
H          6.13494        3.84003       -0.19817
H          7.28632        2.69205       -0.99479
H          8.48865        4.84940       -1.82972
H          7.20699        5.78975       -0.97503
C          8.56866        4.74744        0.33556
H          5.44344        4.70551       -2.35018
H          7.88954        4.58486        1.20223
H          9.29381        3.90741        0.29061
H          9.12648        5.69177        0.51317
C          2.10406        3.17742        3.39496
C          2.85389        4.32005        3.22263
C          3.48372        4.15830        1.99557
C          3.09485        2.95078        1.47327
N          2.24518        2.34303        2.38598
C          3.52904        2.34520        0.15450
N          2.71473        2.67152       -1.04839
C          1.38570        1.94579       -0.96539
H          2.92113        5.15135        3.89548
H          1.45601        2.97801        4.25918
H          4.15935        4.87937        1.53869
H          4.53614        2.69094       -0.02535
H          3.72481        1.26219        0.25158
C          0.38819        2.64161        0.00056
C          0.74128        2.07311       -2.26087
C          1.53574        0.43284       -0.77692
H          0.41710        3.75137       -0.14068
H         -0.65142        2.30893       -0.18961
H          0.51195        2.42925        1.04046
H          1.43674        1.67362       -2.99198
H         -0.24506        1.56579       -2.35114
H          0.54147        3.12083       -2.26993
H          2.30317        0.06705       -1.47252
H          1.83190        0.16451        0.24394
H          0.59130       -0.10196       -1.02462
Na         2.87214        4.67854       -3.16551
Mg         4.02153        2.35418       -2.88645
H          4.75643       -0.32856       -2.06630
C          5.18919       -0.99665       -4.05493
C          4.41011       -0.05035       -3.08822
C          6.70387       -0.79686       -4.03099
H          5.00491       -2.06072       -3.75772
H          4.80810       -0.88971       -5.09352
H          7.07751       -0.97992       -3.00111
H          7.20085       -1.53363       -4.70733
C          7.06549        0.60699       -4.48275
H          3.37650       -0.43202       -3.21055
H          6.79685        0.74111       -5.55236
H          6.51327        1.34751       -3.87330
H          8.15255        0.77290       -4.34876
C         -0.30367        4.67769       -3.81259
C         -1.23283        3.84403       -4.35176
C         -0.54360        2.83207       -5.02639
C          0.78960        3.11550       -4.86728
N          0.94343        4.19902       -4.07668
C          2.01129        2.33130       -5.32649
N          3.24973        3.05919       -4.94955
C          3.51599        4.31200       -5.79697
H         -2.30074        3.93326       -4.20356
H         -0.48896        5.51396       -3.15549
H         -0.99087        1.97729       -5.51072
H          1.95261        2.12904       -6.41073
H          2.03850        1.30002       -4.91656
C          2.54900        5.54124       -5.65515
C          4.91171        4.84500       -5.46661
C          3.45348        4.02854       -7.31698
H          2.51890        5.95783       -4.66111
H          2.88356        6.41236       -6.24958
H          1.52642        5.34021       -6.04066
H          5.70255        4.15291       -5.81984
H          5.08830        5.84787       -5.90954
H          4.98496        4.98116       -4.38532
H          4.16543        3.23567       -7.60843
H          2.42389        3.75152       -7.63086
H          3.68057        4.95328       -7.88966
