110
speciation2600.ct
Na         0.99805        1.55494        0.22947
Mg         3.42236       -0.48536       -1.57950
C          3.08714       -2.69221       -2.97287
C          4.40583       -1.22146       -4.27648
O          3.33418       -1.34192       -3.33375
C          4.28024       -3.42676       -2.34787
C          4.10110       -1.83666       -5.64742
H          2.31782       -2.67753       -2.19301
H          2.62661       -3.25825       -3.80540
H          4.59530       -0.14533       -4.47111
H          5.34937       -1.65137       -3.88901
H          3.26252       -1.30021       -6.13420
H          5.00324       -1.75137       -6.29239
H          3.86376       -2.91630       -5.57778
H          4.68645       -2.84357       -1.49714
H          3.94071       -4.41509       -1.97903
H          5.08816       -3.61513       -3.08123
H          5.89142        0.02522       -2.60495
C          6.26062        1.22805       -0.93897
C          5.27387        0.68169       -1.97055
C          6.83412        0.10070       -0.06741
H          7.09577        1.72921       -1.47840
H          5.76266        1.99874       -0.31473
H          6.02776       -0.43497        0.46632
H          7.36504       -0.64256       -0.70054
C          7.79325        0.66287        0.97240
H          4.92072        1.53018       -2.59528
H          8.65567        1.15090        0.47177
H          7.26905        1.40653        1.61066
H          8.16534       -0.15981        1.61778
C         -2.02835        0.62160        0.64367
C         -2.67347       -0.58908        0.50262
C         -1.71146       -1.51086        0.13731
C         -0.51782       -0.81870        0.08678
N         -0.71695        0.46805        0.37790
C          0.83116       -1.36901       -0.28861
N          1.92906       -0.38198       -0.08200
C          2.61856       -0.47201        1.22754
H         -3.73190       -0.77858        0.64633
H         -2.49023        1.56315        0.90676
H         -1.86516       -2.56301       -0.06715
H          0.73071       -1.59241       -1.36465
H          1.02006       -2.31520        0.25308
C          3.46487       -1.75382        1.33861
C          3.55514        0.72731        1.27277
C          1.65004       -0.40407        2.43186
H          4.13248       -1.84835        0.46330
H          4.09017       -1.72491        2.25801
H          2.83550       -2.66316        1.40455
H          3.01516        1.67016        1.14991
H          4.17070        0.76419        2.19638
H          4.18774        0.67553        0.39515
H          0.98160        0.47298        2.36852
H          1.00998       -1.30769        2.49116
H          2.22318       -0.33655        3.38359
Na         3.57340        3.89860        0.00450
Mg         0.46513        6.51731       -2.79547
C         -1.75397        7.27979       -1.17865
C         -0.24086        9.04944       -1.74788
O         -0.43125        7.65290       -1.52562
C         -2.86344        7.81778       -2.09468
C         -0.33097        9.85540       -0.45352
H         -1.79910        6.17106       -1.22027
H         -1.96134        7.54739       -0.12198
H          0.78694        9.19464       -2.12793
H         -0.91304        9.44670       -2.53574
H          0.41913        9.48477        0.27606
H         -0.12251       10.92489       -0.66958
H         -1.34343        9.78850       -0.00410
H         -2.66634        7.54407       -3.15043
H         -3.84073        7.38483       -1.78714
H         -2.97128        8.92114       -2.00526
H          1.52628        6.94067       -5.17406
C          2.96133        7.97543       -3.91111
C          1.52945        7.55302       -4.24870
C          3.89165        6.77523       -3.70474
H          3.34553        8.58896       -4.75524
H          2.95580        8.60114       -2.99329
H          3.53927        6.17216       -2.84049
H          3.88644        6.13404       -4.61466
C          5.32645        7.23764       -3.44955
H          0.92136        8.46237       -4.43353
H          5.71019        7.80434       -4.32554
H          5.37296        7.88970       -2.55112
H          5.98485        6.35804       -3.28615
C          1.35280        3.89792       -4.07938
C          1.66737        2.60042       -3.72839
C          1.49334        2.51009       -2.36654
C          1.07984        3.76357       -1.93855
N          1.00737        4.60903       -2.98488
C          0.67777        4.19284       -0.55479
N          1.51570        3.59847        0.50089
C          1.19076        4.04727        1.88759
H          1.98273        1.80126       -4.38940
H          1.37499        4.29337       -5.08564
H          1.65876        1.61810       -1.78879
H         -0.36984        3.86314       -0.42328
H          0.71954        5.29754       -0.54227
C         -0.25217        3.65000        2.27788
C          2.14686        3.38506        2.89942
C          1.37742        5.57277        2.04696
H         -0.38712        2.55488        2.17152
H         -0.46293        3.91825        3.33536
H         -1.00984        4.16443        1.65370
H          3.20712        3.59782        2.64410
H          1.95699        3.75663        3.93012
H          1.99962        2.29935        2.95178
H          2.42078        5.85817        1.79207
H          0.67525        6.15401        1.41861
H          1.17761        5.87537        3.09810
