80
speciation861.ct
Na         4.74655        0.83836        3.00138
Mg         2.01036        4.46718       -0.81666
H          2.94513        6.74182        0.35257
C          4.83873        6.06042       -0.48069
C          3.44603        5.78195        0.11600
C          4.77871        6.82750       -1.79854
H          5.42975        6.64995        0.25469
H          5.38265        5.11176       -0.65339
H          4.19855        6.23682       -2.53674
H          4.27515        7.80541       -1.64807
C          6.19274        7.07380       -2.33459
H          3.61216        5.24603        1.07572
H          6.77226        7.71217       -1.63476
H          6.73860        6.11524       -2.44974
H          6.14202        7.57840       -3.32216
C          5.74632       -0.55396        0.49454
C          5.80895       -0.57411       -0.87695
C          5.09277        0.51499       -1.31412
C          4.59349        1.15676       -0.19337
N          5.00806        0.49586        0.91484
C          3.75584        2.43456       -0.14666
N          2.79898        2.68486       -1.26458
C          1.68464        1.69472       -1.40531
H          6.33314       -1.28990       -1.49478
H          6.22255       -1.26421        1.15168
H          4.95555        0.77469       -2.33830
H          3.27747        2.55819        0.84471
H          4.50845        3.23097       -0.20097
C          0.81116        1.67774       -0.14559
C          0.87040        2.13131       -2.62557
C          2.13283        0.23840       -1.69996
H          0.47511        2.69890        0.08454
H         -0.07248        1.01931       -0.28531
H          1.38210        1.28744        0.72363
H          1.52267        2.10391       -3.51859
H          0.00554        1.45560       -2.80105
H          0.50295        3.16427       -2.51917
H          2.77401        0.18668       -2.60439
H          2.63148       -0.24137       -0.83635
H          1.25013       -0.40526       -1.90367
Na         1.14188        3.94685       -6.25077
Mg         3.89893        2.35606       -2.89003
H          0.20300        6.51168       -0.88691
C         -1.23655        4.89125       -0.82591
C          0.12231        5.47440       -1.27099
C         -1.39609        4.86947        0.70494
H         -2.05132        5.51969       -1.25342
H         -1.35584        3.86317       -1.23109
H         -0.60569        4.24668        1.15783
H         -1.30578        5.89853        1.10744
C         -2.75764        4.30114        1.11868
H          0.12122        5.52929       -2.38105
H         -3.58433        4.94992        0.75574
H         -2.90002        3.27528        0.71479
H         -2.81744        4.24931        2.22788
C          0.92952        0.86603       -6.10841
C          1.62631       -0.31341       -5.95650
C          2.95506        0.03331       -5.79600
C          3.00725        1.41095       -5.85455
N          1.76832        1.91680       -6.04618
C          4.24276        2.25614       -5.76459
N          4.99889        2.02726       -4.51548
C          6.26416        2.79939       -4.39598
H          1.21274       -1.31074       -5.97159
H         -0.13772        0.95400       -6.26429
H          3.78608       -0.64643       -5.66132
H          3.93078        3.31798       -5.85140
H          4.87110        1.98954       -6.64295
C          6.02118        4.31374       -4.53063
C          6.86350        2.55244       -2.99738
C          7.30875        2.34523       -5.43708
H          5.26165        4.63328       -3.78965
H          6.96487        4.87259       -4.35642
H          5.67509        4.59490       -5.54438
H          7.10210        1.47622       -2.86011
H          7.80766        3.12068       -2.85566
H          6.15461        2.88170       -2.20860
H          7.50559        1.25648       -5.33689
H          6.97984        2.55762       -6.47298
H          8.26784        2.88865       -5.28497
