110
speciation2506.ct
Na        -2.01730        0.12641        2.23598
Mg        -0.49663       -4.73153       -1.67219
C         -2.90698       -3.35286       -2.94971
C         -1.05798       -3.68920       -4.35654
O         -1.53813       -3.75182       -3.03737
C         -3.89298       -4.26104       -3.69088
C          0.43404       -3.83018       -4.30636
H         -3.21107       -3.34417       -1.88485
H         -3.02440       -2.29974       -3.30388
H         -1.46849       -4.51692       -4.96977
H         -1.26502       -2.69234       -4.81059
H          0.65570       -4.80947       -3.85485
H          0.88101       -3.80710       -5.31495
H          0.85080       -3.00162       -3.69352
H         -3.83048       -5.29322       -3.29318
H         -4.92788       -3.87908       -3.54305
H         -3.70250       -4.26140       -4.78348
H          2.16263       -4.43935       -2.42133
C          2.44576       -4.90500       -0.39056
C          1.61706       -4.23692       -1.48511
C          3.89694       -4.39796       -0.44876
H          2.01315       -4.71572        0.61531
H          2.43983       -5.99405       -0.59180
H          4.29822       -4.55459       -1.47395
H          3.93201       -3.30980       -0.21938
C          4.80055       -5.15095        0.51969
H          1.60199       -3.13696       -1.30830
H          4.47967       -4.97883        1.56761
H          4.77309       -6.23919        0.29665
H          5.84619       -4.79511        0.39791
C         -0.74346       -4.52004        0.99606
C         -1.03275       -3.79493        2.08576
C         -1.38440       -2.55329        1.63509
C         -1.29272       -2.54807        0.29151
N         -0.94493       -3.80498       -0.11342
C         -1.57342       -1.33904       -0.60273
N         -1.31604        0.00363        0.02260
C         -1.72665        1.15243       -0.86978
H         -0.96807       -4.15602        3.09194
H         -0.38722       -5.51980        1.03205
H         -1.65711       -1.75683        2.23738
H         -2.64383       -1.43468       -0.83456
H         -0.98731       -1.45839       -1.53557
C         -3.22467        1.07822       -1.25869
C         -1.52524        2.49850       -0.13979
C         -0.85344        1.21882       -2.15453
H         -3.85372        1.06133       -0.34381
H         -3.51857        1.96237       -1.86700
H         -3.46519        0.19899       -1.88692
H         -0.46101        2.66583        0.12653
H         -1.83318        3.34217       -0.80592
H         -2.14638        2.55820        0.77674
H          0.21503        1.38420       -1.89407
H         -0.92303        0.31026       -2.78162
H         -1.16668        2.06998       -2.80162
Na         0.82073        0.15569        0.13469
Mg        -0.98162        1.89081        3.84417
C         -0.95427       -7.65164       -0.48863
C         -0.37441       -7.44630       -2.76840
O         -0.87857       -6.76088       -1.62667
C          0.35088       -8.35358       -0.04137
C         -1.32510       -8.52866       -3.30336
H         -1.40684       -7.13405        0.36705
H         -1.72996       -8.42330       -0.65530
H         -0.25924       -6.72373       -3.58839
H          0.64420       -7.84963       -2.59229
H         -2.28597       -8.06597       -3.60911
H         -0.86182       -9.02408       -4.18139
H         -1.52588       -9.33261       -2.56721
H          1.13308       -7.62965        0.25028
H          0.13886       -8.99799        0.84057
H          0.75068       -9.04458       -0.81375
H          1.17430        0.48931        4.46375
C          1.62566        2.53032        4.96629
C          1.03144        1.49099        4.01890
C          1.36107        3.97261        4.51365
H          1.14644        2.39856        5.96113
H          2.71693        2.35163        5.08172
H          0.26526        4.15024        4.46478
H          1.79063        4.65612        5.27839
C          1.98481        4.31375        3.16148
H          1.55126        1.50126        3.03876
H          3.08299        4.15159        3.18721
H          1.53711        3.70044        2.35257
H          1.78678        5.38133        2.92876
C         -3.54023        3.40288        3.79361
C         -4.87981        3.27198        4.11057
C         -5.06396        1.98443        4.55773
C         -3.82465        1.37541        4.47648
N         -2.89444        2.24428        4.02345
C         -3.58159       -0.03999        4.85015
N         -2.19464       -0.42144        4.51892
C         -1.85158       -1.80068        4.99881
H         -5.64287        4.03609        4.03356
H         -3.06358        4.29388        3.42339
H         -5.98503        1.53192        4.88911
H         -4.27883       -0.62625        4.25026
H         -3.78199       -0.13461        5.93816
C         -2.86450       -2.86773        4.46502
C         -0.36233       -2.08295        4.64895
C         -1.89305       -1.94401        6.53989
H         -3.09336       -2.80747        3.39317
H         -2.53310       -3.89944        4.71175
H         -3.85677       -2.74557        4.94974
H          0.29964       -1.42013        5.23974
H         -0.07499       -3.12252        4.91194
H         -0.06089       -1.88060        3.61468
H         -1.21002       -1.22343        7.03147
H         -2.90961       -1.82675        6.95623
H         -1.56566       -2.97228        6.82628
