110
speciation2202.ct
Na         2.17667       -2.48776        0.23289
Mg         5.81621        1.92652       -4.45610
C          1.67545       -4.22150       -2.21747
C          0.66672       -4.98067       -0.18759
O          1.65865       -4.19128       -0.79882
C          0.34381       -3.89568       -2.91738
C          0.79794       -4.82234        1.32373
H          2.41242       -3.45022       -2.52070
H          2.08171       -5.18807       -2.59279
H         -0.35425       -4.65510       -0.47870
H          0.83434       -6.05324       -0.42836
H          0.63121       -3.76785        1.61682
H          0.05474       -5.45043        1.85188
H          1.81903       -5.11426        1.64656
H         -0.22062       -3.08972       -2.42543
H          0.55111       -3.56971       -3.95961
H         -0.31397       -4.78585       -2.94835
H          7.21870        4.20856       -3.95805
C          6.00360        5.06339       -5.53102
C          6.73079        3.83745       -4.89411
C          4.84999        5.64545       -4.69928
H          6.74173        5.87942       -5.72603
H          5.59239        4.75100       -6.51621
H          4.37910        6.47159       -5.27998
H          4.07897        4.86556       -4.52474
C          5.30509        6.22828       -3.35964
H          7.55550        3.57529       -5.58238
H          5.73996        5.44066       -2.71255
H          6.05653        7.03098       -3.52126
H          4.43231        6.66575       -2.82820
C          3.38144       -2.98218        3.15781
C          3.85819       -2.16349        4.16453
C          3.73335       -0.86488        3.71156
C          3.18121       -0.95447        2.45060
N          2.96493       -2.23338        2.12073
C          2.85018        0.18441        1.53742
N          2.20414       -0.30733        0.30054
C          0.76585       -0.00099        0.13597
H          4.25386       -2.48254        5.11851
H          3.34865       -4.06074        3.17917
H          4.00916        0.03724        4.23917
H          3.79577        0.70387        1.26998
H          2.22133        0.90054        2.09194
C          0.51361        1.48792        0.07635
C          0.35119       -0.60666       -1.20725
C         -0.08996       -0.59583        1.26051
H          1.19020        1.81121       -0.68400
H         -0.52866        1.73058       -0.21900
H          0.74878        2.02260        1.01328
H          0.59673       -1.67717       -1.16893
H         -0.73418       -0.48068       -1.40495
H          0.92325       -0.16096       -2.05002
H          0.04234       -1.68688        1.31712
H          0.17324       -0.14609        2.24165
H         -1.16529       -0.37973        1.06990
Na         4.91736        1.27794       -1.65235
Mg         3.29807        0.29104       -1.27196
C          3.30200        0.94903       -5.80138
C          5.07172        1.77812       -7.16532
O          4.45401        1.79445       -5.88480
C          3.44712       -0.48998       -6.33667
C          4.19915        2.39903       -8.26645
H          3.02085        0.84936       -4.74329
H          2.42824        1.44072       -6.29279
H          5.98703        2.39334       -7.10468
H          5.41572        0.76293       -7.43859
H          3.94256        3.45066       -8.01860
H          4.76206        2.38597       -9.22450
H          3.26209        1.82530       -8.42326
H          4.29876       -1.01217       -5.86924
H          2.52313       -1.05976       -6.10318
H          3.57934       -0.51046       -7.43471
H          3.81467        3.14614       -2.24703
C          1.75029        3.73763       -2.01595
C          2.84101        2.61457       -2.25285
C          1.89623        4.46568       -0.66165
H          1.79664        4.51309       -2.81241
H          0.73623        3.28904       -2.10651
H          2.04593        3.72629        0.14832
H          2.81348        5.09678       -0.67484
C          0.71300        5.38635       -0.27409
H          2.66050        2.31522       -3.29566
H         -0.14814        5.64651       -0.92791
H          0.97609        6.32389       -0.73871
H          0.72862        5.65492        0.80970
C          4.77812       -2.56698       -0.82147
C          5.76486       -3.41347       -1.30045
C          6.29480       -2.78753       -2.38936
C          5.61723       -1.59123       -2.50417
N          4.69528       -1.39391       -1.53267
C          5.98202       -0.55841       -3.50848
N          6.44579        0.69291       -2.90238
C          7.83509        0.68522       -2.30601
H          6.07598       -4.39567       -0.94127
H          4.23589       -2.82616        0.05702
H          7.08740       -3.16011       -3.02430
H          6.70223       -0.94160       -4.25079
H          5.03794       -0.34282       -3.99976
C          8.87134        0.52144       -3.41514
C          8.06523        2.01124       -1.54234
C          8.13780       -0.39428       -1.19956
H          8.67706        1.24803       -4.22491
H          9.91104        0.65002       -3.03464
H          8.81210       -0.50625       -3.82763
H          7.37359        2.10136       -0.67668
H          9.09404        2.08609       -1.14170
H          7.89859        2.91230       -2.19815
H          7.44885       -0.32877       -0.32892
H          8.16241       -1.41943       -1.59031
H          9.17436       -0.25254       -0.79889
