96
speciation1362.ct
Na         2.44485        0.60331        0.97291
Mg         0.59296        1.92172       -0.54202
C          0.45640        1.44319        3.17594
C          1.59800       -0.56896        3.76997
O          1.15418        0.30376        2.72026
C          1.25418        2.31688        4.13597
C          0.46862       -1.18530        4.63045
H          0.22325        2.03974        2.27514
H         -0.53807        1.16671        3.59152
H          2.13676       -1.42463        3.31201
H          2.33396       -0.06431        4.43019
H         -0.21531       -1.80353        4.01117
H          0.91038       -1.84176        5.41253
H         -0.11971       -0.41197        5.16513
H          2.25895        2.51572        3.71039
H          0.71492        3.27416        4.28441
H          1.35401        1.82587        5.12650
H          0.42518        4.37715       -1.26122
C         -1.67753        3.92705       -1.03730
C         -0.26891        3.53926       -1.47542
C         -2.16449        5.17812       -1.76677
H         -2.37048        3.09825       -1.28286
H         -1.67320        4.11738        0.06007
H         -1.47861        6.02395       -1.54772
H         -2.16878        4.98804       -2.86182
C         -3.57644        5.55669       -1.32467
H         -0.25878        3.29675       -2.55708
H         -4.29178        4.74136       -1.56684
H         -3.60235        5.74902       -0.23057
H         -3.89500        6.47820       -1.85512
C          5.41495        1.44614        2.25100
C          6.00642        2.71169        2.21094
C          5.12873        3.52807        1.54685
C          4.05896        2.73706        1.20958
N          4.22457        1.47573        1.62324
C          2.81574        3.15958        0.46096
N          2.53857        2.23373       -0.65787
C          3.41903        2.51938       -1.90857
H          6.96365        2.99278        2.61582
H          5.85624        0.58485        2.71664
H          5.25044        4.58806        1.31597
H          2.81835        4.22575        0.17229
H          1.97596        3.05019        1.17199
C          4.95993        2.35674       -1.64676
C          3.08774        1.65757       -3.17123
C          3.20349        3.94520       -2.45420
H          5.30177        1.37694       -1.26983
H          5.53559        2.51059       -2.58554
H          5.34532        3.12052       -0.95838
H          2.05227        1.82328       -3.54054
H          3.77920        1.88744       -4.00157
H          3.23711        0.60351       -3.09507
H          2.15541        4.07679       -2.78125
H          3.49332        4.73515       -1.74671
H          3.84680        4.09983       -3.35539
Mg         2.61565       -2.66534        1.06680
C          3.99777       -5.01093        1.24737
C          2.21256       -4.76421        2.80950
O          3.29382       -4.13870        2.13118
C          3.13793       -5.92101        0.34420
C          2.68276       -5.80331        3.83549
H          4.60559       -4.36423        0.58206
H          4.72519       -5.62747        1.81587
H          1.66401       -3.98084        3.37279
H          1.47070       -5.19705        2.10832
H          3.31190       -5.32112        4.61296
H          1.79952       -6.26381        4.32686
H          3.26271       -6.61831        3.35559
H          2.38162       -5.33923       -0.20709
H          3.78688       -6.43840       -0.39273
H          2.61222       -6.70489        0.92706
C         -1.95667        0.88608        0.47540
C         -2.68637       -0.20940        0.86531
C         -1.83027       -1.26924        0.81603
C         -0.60473       -0.77370        0.40572
N         -0.68623        0.55167        0.15075
C          0.56836       -1.69489        0.30972
N          1.92000       -1.15400       -0.02500
C          2.35197       -1.46580       -1.37898
H         -3.72746       -0.23088        1.15983
H         -2.36171        1.87450        0.44094
H         -2.06861       -2.29680        1.06449
H          0.65301       -2.16776        1.30964
H          0.22662       -2.49679       -0.36277
C          1.33068       -0.77510       -2.32889
C          3.79883       -0.98392       -1.42446
C          2.44020       -2.98737       -1.68739
H          1.20286        0.28878       -2.04047
H          1.59554       -0.86757       -3.39905
H          0.31407       -1.21058       -2.23204
H          4.43334       -1.53260       -0.69324
H          4.27296       -1.10782       -2.42081
H          3.79631        0.03873       -1.05503
H          3.36672       -3.43676       -1.27015
H          1.62101       -3.59457       -1.29059
H          2.45851       -3.15729       -2.78344
