83
speciation526.ct
Na         5.08918        1.24388        3.38341
Mg         1.31976        1.48365       -1.14380
C          5.85799        1.13056        6.47491
C          5.53716        3.27033        5.69449
O          5.85383        1.94276        5.31001
C          6.14525       -0.31429        6.12382
C          5.24426        4.11492        4.47226
H          6.66736        1.46145        7.17122
H          4.87670        1.16813        6.99990
H          4.63475        3.31607        6.34924
H          6.40887        3.72749        6.21959
H          4.35288        3.71259        3.94870
H          5.03592        5.15963        4.79144
H          6.11936        4.11077        3.79058
H          7.15405       -0.40644        5.67120
H          6.11196       -0.92847        7.05180
H          5.37565       -0.68515        5.41813
C          4.54220       -0.91099        1.00638
C          4.12768       -1.09188       -0.30364
C          3.69058        0.13034       -0.75297
C          3.84610        1.00072        0.29717
N          4.38716        0.37772        1.38018
C          3.69383        2.47408        0.22376
N          2.47666        3.06776       -0.42231
C          2.65244        4.62414       -0.41820
H          4.16614       -2.00756       -0.87873
H          4.97575       -1.67868        1.63147
H          3.33717        0.36535       -1.74847
H          3.80284        2.81602        1.26640
H          4.59358        2.74623       -0.34569
C          3.99714        5.07957       -1.09526
C          1.53307        5.50499       -1.06363
C          2.66987        5.17213        1.03259
H          4.10832        4.68991       -2.12748
H          4.06475        6.18734       -1.15597
H          4.89996        4.78569       -0.52551
H          0.50576        5.16160       -0.83317
H          1.59078        6.56384       -0.72841
H          1.72413        5.76071       -2.11400
H          1.69619        4.97758        1.52583
H          3.49919        4.80338        1.65318
H          2.82893        6.27480        1.02858
Na         0.92419        1.55717       -1.60893
C         -0.20031        1.36387        1.50238
C          0.70823       -0.73538        1.44133
O          0.39060        0.39589        0.60687
C          0.85050        2.17857        2.25651
C          0.96885       -2.08107        0.76594
H         -0.87660        2.01679        0.92923
H         -0.86335        0.91670        2.28769
H          1.56516       -0.53623        2.13375
H         -0.15732       -1.03379        2.11243
H          1.82557       -2.01437        0.09087
H          1.21098       -2.84286        1.55227
H          0.07107       -2.44096        0.22638
H          1.42571        2.70906        1.52784
H          0.38608        2.94230        2.91476
H          1.54849        1.55348        2.84808
C         -2.02300        0.17763       -3.26969
C         -2.15540       -0.28738       -4.58126
C         -0.88861       -0.38038       -5.10878
C         -0.05535        0.00919       -4.09542
N         -0.70210        0.42751       -2.98996
C          1.38940        0.24876       -4.14907
N          1.60342        1.52443       -3.47950
C          1.09362        2.71873       -4.25268
H         -3.07610       -0.46006       -5.14092
H         -2.84136        0.45086       -2.63185
H         -0.61048       -0.62809       -6.13468
H          1.79134        0.22506       -5.18307
H          1.90266       -0.54457       -3.56895
C         -0.42995        2.79352       -4.60757
C          1.29938        3.84785       -3.35883
C          1.90018        2.98213       -5.54303
H         -1.07920        2.66787       -3.71721
H         -0.70040        3.80102       -4.99340
H         -0.70918        2.11586       -5.43049
H          2.37139        3.88713       -3.10379
H          0.97609        4.79995       -3.83715
H          0.68507        3.64986       -2.45474
H          2.97214        3.16183       -5.31519
H          1.81103        2.15162       -6.26697
H          1.50811        3.89404       -6.05143
