110
speciation1965.ct
Na         0.74480       -0.13098        0.02739
Mg        -2.04283        1.26289       -1.86007
C          1.43304       -2.99174        0.87442
C         -0.87869       -2.69449        1.13073
O          0.36223       -2.06802        0.84752
C          1.55325       -3.76071       -0.43782
C         -1.98443       -1.66395        1.16457
H          2.36775       -2.42040        1.04563
H          1.35800       -3.69329        1.73867
H         -1.13872       -3.44085        0.34979
H         -0.86023       -3.18146        2.13632
H         -2.00572       -1.14605        0.18981
H         -2.96093       -2.16627        1.34694
H         -1.80111       -0.92415        1.96956
H          1.66847       -3.05078       -1.27947
H          2.44426       -4.42070       -0.40055
H          0.66138       -4.39764       -0.61248
H         -3.96554        3.03803       -1.55091
C         -2.28961        4.41486       -1.46343
C         -2.94431        3.06899       -1.11588
C         -3.06256        5.61005       -0.90622
H         -1.29804        4.48606       -1.02137
H         -2.18282        4.50635       -2.56437
H         -4.07295        5.63356       -1.36229
H         -3.16432        5.49980        0.19939
C         -2.33471        6.92345       -1.18999
H         -3.01145        2.94679       -0.01322
H         -1.33676        6.93326       -0.69850
H         -2.19790        7.06726       -2.28207
H         -2.92759        7.77186       -0.78875
C          0.62575        4.36070        1.52196
C         -0.06963        3.25540        1.96248
C         -0.20841        2.41420        0.88296
C          0.41125        3.04020       -0.18609
N          0.91104        4.25210        0.21228
C          0.50191        2.48141       -1.60718
N         -0.02001        1.10057       -1.77729
C          0.26065        0.54870       -3.15461
H         -0.43787        3.10438        2.96573
H          0.90002        5.22292        2.11747
H         -0.72931        1.46313        0.88869
H          1.54842        2.49699       -1.86926
H          0.01455        3.18504       -2.29733
C          1.75805        0.58484       -3.56585
C         -0.15795       -0.92337       -3.21338
C         -0.55949        1.32069       -4.21499
H          2.37534        0.00363       -2.85625
H          1.88251        0.12589       -4.57725
H          2.17047        1.60178       -3.67254
H         -1.21416       -1.03588       -2.97737
H         -0.00373       -1.33959       -4.23796
H          0.42299       -1.53398       -2.49778
H         -1.64238        1.28822       -3.97399
H         -0.24713        2.38146       -4.29743
H         -0.42508        0.87583       -5.22712
Na         1.96331        6.12697       -0.33530
Mg         3.78297        8.53122        1.92475
C          3.29962        1.30753        0.25871
C          2.93043        0.44641        2.36493
O          2.32250        0.78859        1.13433
C          3.98899        0.20342       -0.52198
C          1.93606       -0.08975        3.38049
H          4.03163        1.99116        0.73767
H          2.80212        1.98708       -0.41111
H          3.73578       -0.30905        2.22307
H          3.34868        1.37305        2.81478
H          1.59754       -1.10703        3.10438
H          2.45359       -0.15138        4.36235
H          1.06424        0.58951        3.48242
H          3.27849       -0.62305       -0.73524
H          4.37912        0.61310       -1.47740
H          4.83499       -0.18411        0.07951
H         -3.25489       -1.18004       -2.67876
C         -4.95189        0.06824       -2.58267
C         -3.59573       -0.34672       -2.03033
C         -4.80288        0.67590       -3.97993
H         -5.61617       -0.82518       -2.63346
H         -5.39910        0.81029       -1.89319
H         -4.12227        1.55018       -3.92626
H         -4.37249       -0.07421       -4.68205
C         -6.15667        1.13736       -4.50978
H         -3.77903       -0.79587       -1.03519
H         -6.85203        0.27670       -4.60954
H         -6.60049        1.88449       -3.81660
H         -6.02602        1.61013       -5.50501
C          3.45294        4.52768       -2.31100
C          4.74534        4.06109       -2.31330
C          5.48768        4.92191       -1.50285
C          4.60254        5.87877       -1.04448
N          3.39916        5.52936       -1.45003
C          4.76888        7.08586       -0.12728
N          3.46466        7.64957        0.20844
C          2.84592        8.78007       -0.54841
H          5.06242        3.14474       -2.78730
H          2.58246        4.08818       -2.76803
H          6.52823        4.80507       -1.22323
H          5.47449        7.83209       -0.58061
H          5.25353        6.70082        0.79014
C          2.62180        8.46016       -2.03611
C          1.47322        8.99241        0.12433
C          3.64667       10.09354       -0.42856
H          1.97493        7.57118       -2.17144
H          2.09714        9.31153       -2.53175
H          3.58486        8.30417       -2.56273
H          1.60971        9.23726        1.19927
H          0.88844        9.79362       -0.36478
H          0.87818        8.05015        0.07951
H          3.77725       10.39419        0.63258
H          4.64057       10.01725       -0.91034
H          3.09302       10.91851       -0.93871
