83
speciation444.ct
Na         1.22694       -0.06297        0.18900
Mg        -1.48139       -0.10385       -4.59015
C         -1.05973        2.04566        0.15135
C          0.99997        3.24755       -0.00560
O          0.35927        1.98943        0.26885
C         -1.59029        2.64125       -1.16821
C          0.64978        4.36372        1.00281
H         -1.42937        1.00851        0.21483
H         -1.50754        2.57920        1.02293
H          2.09659        3.10910        0.02766
H          0.79162        3.58895       -1.03930
H          1.00281        4.10459        2.02219
H          1.13850        5.31607        0.69666
H         -0.43985        4.57395        1.04251
H         -1.13459        2.12021       -2.03538
H         -2.69317        2.52496       -1.21342
H         -1.38935        3.73241       -1.24243
C          0.22267       -3.10523        0.60886
C         -0.61286       -4.14330        0.23724
C         -1.34207       -3.68680       -0.82724
C         -0.90704       -2.39539       -1.08175
N          0.05407       -2.01286       -0.18663
C         -1.47682       -1.56067       -2.20022
N         -0.51931       -1.24869       -3.28025
C          0.00142       -2.35644       -4.12260
H         -0.69425       -5.12695        0.68890
H          0.91474       -3.15913        1.43778
H         -2.09712       -4.24192       -1.37275
H         -2.36316       -2.06621       -2.63825
H         -1.84453       -0.61464       -1.75669
C         -1.12906       -3.16492       -4.78976
C          0.83487       -1.69490       -5.23556
C          0.91957       -3.30707       -3.32818
H         -1.79101       -2.49226       -5.37085
H         -0.70820       -3.92642       -5.48258
H         -1.73585       -3.70795       -4.03645
H          1.67568       -1.10863       -4.80832
H          1.25607       -2.45733       -5.92682
H          0.20007       -1.00656       -5.83400
H          1.59868       -2.72172       -2.68343
H          0.35758       -3.99392       -2.67693
H          1.50857       -3.96019       -4.00870
Na         1.15988       -0.17960       -2.50068
C         -3.51112        0.44789       -6.41418
C         -1.60719        1.69723       -6.75519
O         -2.40336        1.05360       -5.77302
C         -4.32904       -0.37694       -5.43157
C         -0.39637        2.37548       -6.13510
H         -4.18498        1.24967       -6.79205
H         -3.20274       -0.21810       -7.25387
H         -1.24749        0.98121       -7.53010
H         -2.20446        2.50489       -7.23823
H          0.29222        1.62214       -5.70125
H          0.14516        2.93730       -6.92857
H         -0.71550        3.09222       -5.35107
H         -4.62227        0.23922       -4.55703
H         -5.25131       -0.73506       -5.94003
H         -3.75576       -1.25969       -5.08600
C          3.99422        0.89405        1.33435
C          5.28224        0.63035        1.75346
C          5.46928       -0.72089        1.61353
C          4.29086       -1.22141        1.08352
N          3.36620       -0.23014        0.92996
C          4.12424       -2.65540        0.69472
N          3.84035       -2.80833       -0.74166
C          4.92427       -2.48884       -1.71356
H          6.01677        1.34001        2.11117
H          3.54670        1.87394        1.32156
H          6.37619       -1.27416        1.82689
H          5.01051       -3.25508        0.98761
H          3.27877       -3.07669        1.28614
C          6.21911       -3.28667       -1.43952
C          4.41817       -2.88024       -3.10823
C          5.22598       -0.97771       -1.76151
H          6.02088       -4.38025       -1.46131
H          6.97888       -3.05622       -2.21853
H          6.67208       -3.02239       -0.46255
H          3.54070       -2.26665       -3.37909
H          5.18840       -2.67746       -3.87926
H          4.14870       -3.95811       -3.14687
H          4.27775       -0.40460       -1.86391
H          5.77299       -0.62811       -0.87433
H          5.88510       -0.73514       -2.61657
