70
speciation1071.ct
Na         2.47062       -2.15597       -3.60213
Mg         4.76929        3.04871       -0.25368
C         -0.23827       -2.66698       -4.68339
C          1.39364       -3.57391       -6.10998
O          1.10433       -2.58882       -5.13373
C         -0.53470       -3.92918       -3.86930
C          2.77962       -3.33239       -6.68368
H         -0.41546       -1.78379       -4.03398
H         -0.95366       -2.56458       -5.53182
H          1.37067       -4.59985       -5.68646
H          0.67675       -3.49406       -6.96132
H          3.54178       -3.44250       -5.88450
H          2.98678       -4.07486       -7.48458
H          2.84184       -2.31179       -7.11680
H          0.19145       -4.02729       -3.03613
H         -1.56132       -3.86746       -3.45015
H         -0.49418       -4.83936       -4.50324
H          6.24931        5.10922        1.01207
C          6.67206        5.76137       -0.93917
C          6.44249        4.60579        0.04833
C          5.40418        6.61135       -1.07699
H          7.50479        6.41681       -0.57746
H          6.96506        5.34280       -1.92083
H          4.56928        5.94441       -1.37133
H          5.15764        7.09197       -0.10085
C          5.55285        7.69565       -2.14167
H          7.40839        4.07082        0.17287
H          6.33954        8.42915       -1.86704
H          5.80594        7.23871       -3.12183
H          4.58748        8.23743       -2.24917
C          3.63351        2.87645       -3.04549
C          2.97062        2.12575       -4.00009
C          2.79452        0.88035       -3.46129
C          3.38442        0.90547       -2.20355
N          3.88742        2.14032       -1.93186
C          3.35994       -0.29385       -1.30134
N          3.86885       -1.48150       -2.02131
C          4.11078       -2.68339       -1.19007
H          2.62493        2.44249       -4.97648
H          3.88927        3.92128       -3.16520
H          2.30225        0.04576       -3.94089
H          2.30591       -0.46744       -1.00525
H          3.95548       -0.03471       -0.40824
C          2.82351       -3.13376       -0.46424
C          4.54415       -3.82998       -2.12598
C          5.25239       -2.43283       -0.18004
H          2.01717       -3.33542       -1.20338
H          3.00578       -4.06896        0.10893
H          2.46415       -2.36900        0.25313
H          5.47180       -3.56677       -2.67361
H          4.73139       -4.76188       -1.54619
H          3.75038       -4.05185       -2.87237
H          6.17886       -2.14004       -0.72015
H          5.00669       -1.63567        0.54770
H          5.46454       -3.34888        0.41056
C          3.74513        3.55265        2.35370
C          4.97210        1.49260        2.21814
O          4.25389        2.50781        1.53246
C          4.72810        4.15121        3.37248
C          4.06778        0.65592        3.13613
H          3.43691        4.36846        1.66782
H          2.81477        3.22518        2.86884
H          5.38915        0.80024        1.45878
H          5.84168        1.89830        2.77443
H          3.24522        0.18973        2.55605
H          4.66441       -0.14856        3.61800
H          3.63098        1.27809        3.94664
H          5.68593        4.41875        2.90166
H          4.28875        5.06851        3.81836
H          4.94212        3.44117        4.19620
