110
speciation2169.ct
Na         1.08971       -0.04411        0.00251
Mg         4.37778       -4.29848       -3.26275
C         -1.78029       -1.18892        0.62677
C         -1.82188        0.10991       -1.27546
O         -1.23029       -0.04411        0.00251
C         -1.16908       -1.38651        2.00542
C         -1.24842        1.32225       -1.99173
H         -2.87462       -1.04227        0.78144
H         -1.60264       -2.10873        0.02404
H         -1.66168       -0.78745       -1.91601
H         -2.91313        0.30205       -1.15732
H         -0.18258        1.15176       -2.23338
H         -1.79765        1.48221       -2.94455
H         -1.35458        2.23101       -1.36204
H         -1.31912       -0.47820        2.62628
H         -1.66707       -2.24519        2.50637
H         -0.08392       -1.60250        1.91901
H          5.32335       -6.95674       -4.12618
C          6.23944       -6.31345       -5.96079
C          5.17553       -6.09007       -4.80312
C          7.70601       -6.29072       -5.47236
H          6.07038       -7.31240       -6.42802
H          6.10373       -5.56027       -6.76664
H          7.89978       -5.30237       -5.01428
H          7.85025       -7.08618       -4.71179
C          8.74625       -6.51298       -6.58957
H          4.20717       -6.28139       -5.31867
H          8.66716       -7.52414       -7.04454
H          8.65523       -5.74853       -7.39033
H          9.77031       -6.42606       -6.15809
C          3.47011       -4.76878       -0.25007
C          3.08923       -4.25200        0.97709
C          3.11995       -2.89017        0.86389
C          3.51153       -2.61886       -0.42779
N          3.73629       -3.78164       -1.14868
C          3.64914       -1.19945       -0.95229
N          3.45971       -0.04411        0.00251
C          3.78886        1.25159       -0.65780
H          2.81812       -4.79555        1.88080
H          3.53420       -5.83082       -0.46508
H          2.88468       -2.17855        1.62039
H          2.85573       -1.11645       -1.70505
H          4.67138       -1.21821       -1.36416
C          2.68783        1.63832       -1.67309
C          3.86653        2.31671        0.43647
C          5.15182        1.23399       -1.40996
H          1.71313        1.74378       -1.15610
H          2.91332        2.60664       -2.16387
H          2.58103        0.88712       -2.48096
H          4.64334        2.03127        1.17563
H          4.13309        3.30550        0.00612
H          2.89610        2.40252        0.96526
H          5.96110        0.89092       -0.74188
H          5.13201        0.58368       -2.30901
H          5.40084        2.24120       -1.79840
Na         6.74925       -1.97346        3.85283
Mg         4.68655       -0.34283        1.67153
C          5.01463       -2.57427       -5.43541
C          3.02699       -2.30465       -4.16065
O          3.92001       -3.20932       -4.77031
C          5.77824       -1.49923       -4.64109
C          2.14162       -1.53346       -5.12680
H          5.74019       -3.36960       -5.69164
H          4.67612       -2.14710       -6.40541
H          2.35974       -2.90279       -3.50302
H          3.56937       -1.60170       -3.53035
H          1.56592       -2.23015       -5.76733
H          1.43032       -0.91879       -4.53039
H          2.75020       -0.84687       -5.74864
H          6.04985       -1.87559       -3.63322
H          6.70655       -1.22372       -5.18545
H          5.18012       -0.56639       -4.55014
H          3.55129        1.15069        3.70214
C          2.76986       -0.79313        4.27837
C          3.21103        0.21761        3.20559
C          3.92142       -1.20032        5.19606
H          1.95862       -0.34835        4.89721
H          2.35739       -1.69712        3.78135
H          4.73280       -1.61794        4.57824
H          4.29774       -0.30855        5.74379
C          3.49292       -2.26687        6.20423
H          2.30541        0.47227        2.61487
H          2.67541       -1.89100        6.85601
H          3.14470       -3.17983        5.67404
H          4.35818       -2.54376        6.84398
C          9.83186       -3.82386        2.06944
C         10.43007       -3.19618        1.00655
C          9.52394       -2.27974        0.50285
C          8.41127       -2.33385        1.23158
N          8.53751       -3.31202        2.26542
C          7.16218       -1.51433        1.00092
N          6.71181       -0.69105        2.14774
C          7.59348        0.45552        2.55437
H         11.42833       -3.39798        0.63729
H         10.28834       -4.60127        2.67857
H          9.69820       -1.62996       -0.34771
H          6.36070       -2.24403        0.77864
H          7.27354       -0.89347        0.09006
C          7.91536        1.41798        1.38923
C          6.87011        1.26176        3.64895
C          8.92564       -0.02822        3.19236
H          6.99171        1.88171        0.99651
H          8.57319        2.24420        1.74035
H          8.45768        0.91270        0.56459
H          6.63107        0.61561        4.52058
H          7.51298        2.09714        4.01077
H          5.92953        1.70131        3.26283
H          8.73118       -0.67875        4.07205
H          9.58577       -0.56075        2.49242
H          9.52802        0.83736        3.54536
