95
speciation1785.ct
Na        -4.53494        1.10448        1.62681
Mg        -0.29399       -3.39948        3.44272
C          1.35874       -5.22844        4.69413
C         -0.80384       -4.92393        5.65404
O          0.32193       -4.31689        5.03727
C          0.92320       -6.44127        3.85881
C         -0.50239       -5.43452        7.06488
H          2.09865       -4.65805        4.09623
H          1.91021       -5.55360        5.60153
H         -1.58407       -4.14263        5.76292
H         -1.25800       -5.71467        5.02312
H         -0.15126       -4.59897        7.70626
H         -1.42846       -5.85947        7.50710
H          0.26461       -6.23512        7.05026
H          0.36025       -6.11129        2.96304
H          1.82160       -7.00705        3.53499
H          0.29984       -7.14036        4.45390
H         -4.22319       -4.73216       -0.37200
C         -4.26853       -2.55457       -0.46583
C         -3.87369       -3.86503        0.22212
C         -3.67816       -2.46873       -1.87013
H         -5.37425       -2.49535       -0.52979
H         -3.90912       -1.68981        0.11506
H         -2.57223       -2.52189       -1.80807
H         -4.05350       -3.32093       -2.47352
C         -4.08423       -1.15996       -2.54704
H         -4.41793       -3.92188        1.18028
H         -5.19199       -1.09465       -2.63069
H         -3.71140       -0.28875       -1.96624
H         -3.64774       -1.12549       -3.56512
C         -5.24738       -1.79408        3.12093
C         -4.72033       -2.95325        3.65370
C         -3.37141       -2.94382        3.36644
C         -3.13179       -1.77981        2.66037
N         -4.28225       -1.07882        2.51353
C         -1.79110       -1.31300        2.15428
N         -0.92578       -2.45843        1.80707
C          0.40507       -2.14711        1.23777
H         -5.25778       -3.71308        4.20484
H         -6.27834       -1.47593        3.19730
H         -2.64939       -3.69734        3.64556
H         -1.96760       -0.66990        1.26925
H         -1.32162       -0.70177        2.95172
C          1.23864       -1.28053        2.20456
C          1.15751       -3.47255        1.06609
C          0.28296       -1.49176       -0.14771
H          1.31076       -1.77820        3.19797
H          2.27132       -1.14610        1.81528
H          0.79808       -0.27447        2.34054
H          0.63483       -4.08680        0.32830
H          2.18743       -3.31941        0.68172
H          1.22194       -4.02641        2.02363
H         -0.33039       -2.13705       -0.81375
H         -0.18644       -0.49192       -0.08612
H          1.28725       -1.37300       -0.60900
Na        -7.34434        6.76517        2.09188
Mg        -1.80976       -4.03004        0.75175
H         -0.53683       -5.60276       -1.05573
C         -1.49290       -7.37406       -0.35470
C         -0.92292       -5.97002       -0.08080
C         -1.94622       -8.10886        0.90880
H         -2.32805       -7.31598       -1.08236
H         -0.68706       -7.99363       -0.81944
H         -2.28953       -9.13211        0.62287
H         -1.09516       -8.22815        1.61782
C         -3.09326       -7.38146        1.59494
H         -0.04714       -6.14157        0.58061
H         -2.75563       -6.37868        1.92643
H         -3.93771       -7.26992        0.87907
H         -3.43361       -7.96199        2.47255
C         -4.51868        3.65357       -0.52617
C         -4.76948        4.99815       -0.70028
C         -5.23181        5.47241        0.51148
C         -5.23074        4.39267        1.37629
N         -4.78763        3.28777        0.74008
C         -5.63368        4.41771        2.81758
N         -7.03886        4.83184        2.95009
C         -7.55882        4.89149        4.33117
H         -4.63670        5.56983       -1.61150
H         -4.14264        2.97631       -1.28036
H         -5.51370        6.49149        0.73102
H         -5.48649        3.40005        3.23025
H         -4.96068        5.13210        3.33089
C         -6.77277        5.89689        5.20233
C         -9.02188        5.37737        4.25015
C         -7.55950        3.50125        5.00471
H         -6.76467        6.89994        4.72368
H         -7.23108        5.98870        6.20846
H         -5.72373        5.56752        5.35464
H         -9.63441        4.68128        3.63891
H         -9.47993        5.44478        5.26403
H         -9.07627        6.38659        3.78563
H         -8.13260        2.77399        4.39121
H         -6.53086        3.11723        5.14896
H         -8.02835        3.55492        6.01272
