96
speciation1597.ct
Na         0.98133       -0.06596        0.07281
Mg        -2.40082        1.51190       -0.56965
C         -4.66995        2.18434        1.52871
C         -4.18816        3.60259       -0.28057
O         -3.65823        2.62563        0.60309
C         -5.85653        1.41775        0.90604
C         -4.64478        4.89251        0.41892
H         -4.19310        1.60559        2.33493
H         -5.05642        3.00955        2.15598
H         -3.37146        3.89418       -0.96526
H         -4.99384        3.18556       -0.92115
H         -3.82086        5.29683        1.04359
H         -4.93541        5.64338       -0.34209
H         -5.54311        4.73551        1.05098
H         -5.52745        0.57036        0.27269
H         -6.50262        1.01768        1.71783
H         -6.49031        2.08760        0.29149
H         -1.34699        3.42813       -2.11286
C          0.18816        1.88346       -2.33976
C         -0.88731        2.61798       -1.51330
C         -0.30788        1.12777       -3.58216
H          0.96147        2.61651       -2.65220
H          0.68505        1.14594       -1.68538
H          0.56210        0.60710       -4.03988
H         -1.04044        0.35143       -3.29827
C         -0.90946        2.04106       -4.64304
H         -0.37774        3.06972       -0.63335
H         -1.81368        2.55116       -4.25631
H         -0.16074        2.79588       -4.96427
H         -1.19987        1.43243       -5.52594
C         -4.22131        0.70729       -2.86198
C         -4.39648       -0.53407       -3.44436
C         -3.56954       -1.41324       -2.76854
C         -2.92195       -0.66858       -1.80312
N         -3.33494        0.60626       -1.85805
C         -1.87532       -1.16182       -0.81832
N         -1.38867       -0.06596        0.07281
C         -1.57451       -0.32241        1.52287
H         -5.04508       -0.76842       -4.27801
H         -4.70160        1.62920       -3.16121
H         -3.44837       -2.47073       -2.96562
H         -1.01450       -1.56638       -1.38648
H         -2.31733       -2.01044       -0.26205
C         -0.75823       -1.52870        2.03767
C         -1.06817        0.93858        2.24817
C         -3.04390       -0.60591        1.84512
H          0.32157       -1.40011        1.84656
H         -0.90529       -1.64080        3.13629
H         -1.09192       -2.47920        1.56993
H         -1.58957        1.84919        1.89316
H         -1.18912        0.85457        3.34665
H          0.01286        1.07486        2.03278
H         -3.64221       -0.00162        1.16972
H         -3.35430       -1.63907        1.60424
H         -3.26781       -0.43975        2.92259
Mg         4.01465        0.92156       -1.52247
C          5.10899        3.17599       -2.71309
C          4.12191        1.81120       -4.37941
O          4.66131        1.88427       -3.07766
C          4.00783        4.23930       -2.67042
C          3.71670        0.37988       -4.67893
H          5.51832        3.08463       -1.68387
H          5.96252        3.49469       -3.34983
H          3.21918        2.44725       -4.49268
H          4.90128        2.09879       -5.12117
H          2.90631        0.07148       -3.98849
H          3.34497        0.30842       -5.72313
H          4.58638       -0.29922       -4.55507
H          3.16049        3.89596       -2.04326
H          4.42110        5.17422       -2.23578
H          3.64168        4.47840       -3.68883
C          2.71711        4.11498        1.06263
C          2.19610        3.74537        2.28381
C          2.53413        2.41862        2.48687
C          3.22885        2.00317        1.43074
N          3.38342        3.02120        0.48254
C          3.83505        0.62234        1.28709
N          3.35133       -0.06596        0.07281
C          3.81990       -1.46644       -0.09369
H          1.63550        4.38941        2.95104
H          2.62749        5.09563        0.60833
H          2.28925        1.83481        3.36793
H          3.57723        0.04954        2.19809
H          4.93469        0.75763        1.23668
C          3.35917       -2.36977        1.07111
C          3.19889       -2.00796       -1.39136
C          5.35814       -1.54345       -0.23046
H          2.25798       -2.33304        1.17433
H          3.65008       -3.42535        0.88134
H          3.82542       -2.08414        2.03479
H          3.52460       -1.39605       -2.25672
H          3.51388       -3.05882       -1.57529
H          2.08950       -1.97711       -1.33921
H          5.70338       -0.96962       -1.11711
H          5.87708       -1.15647        0.66892
H          5.68040       -2.60068       -0.35547
