95
speciation1164.ct
Na         1.14170       -0.44324        0.32353
Mg        -1.87065       -1.16398       -4.55126
C          0.37865        2.34995        0.52432
C          0.29167        2.04169       -1.78888
O          0.50092        1.41308       -0.52607
C         -1.07195        2.78250        0.74755
C          0.50129        1.09742       -2.94958
H          0.71711        1.83966        1.44660
H          1.05868        3.22252        0.38830
H         -0.76362        2.37453       -1.88663
H          0.99162        2.89492       -1.93299
H         -0.23359        0.27759       -2.87822
H          0.31200        1.63378       -3.90375
H          1.54492        0.72604       -2.95989
H         -1.71777        1.88508        0.84738
H         -1.14322        3.39469        1.66866
H         -1.44002        3.40677       -0.09267
H         -4.51508       -0.89656       -5.23316
C         -4.81401       -2.24153       -3.56296
C         -3.99284       -1.75811       -4.77261
C         -4.92455       -1.16426       -2.48001
H         -5.83902       -2.52136       -3.89852
H         -4.35650       -3.16607       -3.15136
H         -3.91648       -0.84877       -2.16395
H         -5.44853       -0.27600       -2.88929
C         -5.67439       -1.67363       -1.24934
H         -4.01062       -2.59066       -5.50470
H         -6.71680       -1.94950       -1.51350
H         -5.15959       -2.55978       -0.81803
H         -5.70217       -0.87608       -0.47616
C          0.13941       -3.40498        1.00522
C         -0.68444       -4.48825        0.75267
C         -1.38820       -4.18351       -0.37827
C         -0.94370       -2.93917       -0.79243
N         -0.01353       -2.43230        0.07018
C         -1.51809       -2.26624       -2.01066
N         -0.62827       -2.14489       -3.17914
C         -0.16436       -3.37618       -3.87228
H         -0.78319       -5.40201        1.33103
H          0.80457       -3.33605        1.85571
H         -2.13755       -4.80745       -0.86049
H         -2.42241       -2.80603       -2.32106
H         -1.82945       -1.25615       -1.69015
C         -1.34275       -4.21935       -4.39069
C          0.67700       -2.89954       -5.06610
C          0.75215       -4.25783       -2.99154
H         -1.99543       -3.61065       -5.04199
H         -0.97587       -5.08348       -4.98685
H         -1.94792       -4.62962       -3.55701
H          1.56648       -2.33473       -4.70861
H          1.03406       -3.76120       -5.67089
H          0.08253       -2.23118       -5.72195
H          1.55365       -3.65780       -2.51270
H          0.19619       -4.80043       -2.21181
H          1.23702       -5.04891       -3.60254
Na         1.21594       -1.38390       -2.41475
Mg         2.26704        4.23738        3.77238
H         -1.47108        1.31565       -5.65864
C         -2.10857        0.56840       -7.55974
C         -1.39533        0.34915       -6.20061
C         -2.01463       -0.63506       -8.50385
H         -3.17610        0.82786       -7.39369
H         -1.63764        1.43368       -8.08493
H         -2.52867       -0.39242       -9.46286
H         -0.95075       -0.86062       -8.73535
C         -2.67914       -1.85354       -7.89040
H         -0.31732        0.19280       -6.41946
H         -2.62181       -2.71567       -8.58347
H         -3.74577       -1.62456       -7.68145
H         -2.15698       -2.11967       -6.95008
C          3.63866       -1.43970        1.74483
C          4.76589       -1.38018        2.54153
C          4.82914       -0.10565        3.03080
C          3.73287        0.56892        2.52132
N          2.98963       -0.25550        1.70898
C          3.48485        2.02633        2.86224
N          2.21643        2.29050        3.55667
C          2.00728        1.79823        4.94174
H          5.47008       -2.17704        2.74760
H          3.31458       -2.32067        1.20968
H          5.58941        0.29197        3.69344
H          4.32285        2.41934        3.46313
H          3.48981        2.59153        1.91154
C          3.13945        2.21864        5.90889
C          0.69697        2.44122        5.42967
C          1.83089        0.26947        4.98305
H          3.26362        3.32322        5.92304
H          2.90095        1.88977        6.94584
H          4.10748        1.75162        5.63528
H         -0.13773        2.17603        4.74544
H          0.43539        2.09885        6.45469
H          0.78838        3.54911        5.44712
H          1.03853       -0.04785        4.27287
H          2.76948       -0.26081        4.74391
H          1.54381       -0.05849        6.00541
