81
speciation767.ct
Na         0.50686        1.17502       -4.80814
Mg         2.33020        4.76470       -0.83450
C          2.25076        6.88045       -2.99822
C          0.75995        5.10658       -3.55093
O          1.75749        5.60300       -2.63322
C          1.17850        7.98380       -3.06206
C          1.20833        4.97656       -5.02144
H          3.02319        7.17581       -2.26292
H          2.78652        6.82457       -3.96884
H          0.44286        4.12334       -3.23584
H         -0.21442        5.63149       -3.49345
H          0.75043        4.07829       -5.48998
H          0.86052        5.86232       -5.60030
H          2.30515        4.88950       -5.13710
H          0.70993        8.15670       -2.08018
H          1.64763        8.93584       -3.37358
H          0.38424        7.74622       -3.79951
H          4.55463       -0.25340        1.84214
C          3.08400        0.58422        3.23353
C          4.15158        0.73337        2.15423
C          1.87811       -0.21082        2.73493
H          3.53625        0.06586        4.10751
H          2.75430        1.59757        3.55014
H          1.41078        0.31905        1.87902
H          2.20946       -1.22216        2.41168
C          0.82869       -0.36147        3.83105
H          4.98376        1.33823        2.57230
H          1.26240       -0.87590        4.71476
H          0.44944        0.63678        4.13758
H         -0.02205       -0.96425        3.44920
C          1.26122       -1.18792       -2.99502
C          1.72706       -1.59088       -1.76469
C          1.95030       -0.43272       -1.03923
C          1.60996        0.61844       -1.86215
N          1.19237        0.14326       -3.06082
C          1.63451        2.09218       -1.53261
N          2.91356        2.72678       -1.12213
C          4.06728        2.61916       -2.08528
H          1.87438       -2.60628       -1.43244
H          0.98054       -1.85556       -3.81561
H          2.31480       -0.38107       -0.03035
H          1.28257        2.56586       -2.42750
H          0.89519        2.26916       -0.72573
C          3.77710        3.29247       -3.43830
C          5.28292        3.33053       -1.46868
C          4.50616        1.15968       -2.35113
H          3.63510        4.37577       -3.30027
H          4.64051        3.18066       -4.12960
H          2.89765        2.84485       -3.94300
H          5.57493        2.86176       -0.50558
H          6.15677        3.28774       -2.15772
H          5.06401        4.39791       -1.30546
H          4.67830        0.61930       -1.39716
H          3.78930        0.60736       -2.98203
H          5.45196        1.13998       -2.93620
Mg         3.52489        1.74244        0.49572
C          4.81137        6.39871        0.45320
C          4.98211        6.75039        1.78782
C          3.91479        6.22548        2.47976
C          3.15165        5.56671        1.53982
N          3.66153        5.70549        0.29784
C          1.85494        4.83581        1.77118
N          0.92758        5.08884        0.64963
C          0.27764        6.44235        0.68695
H          5.78880        7.33496        2.21978
H          5.47906        6.67353       -0.35097
H          3.71285        6.31370        3.54275
H          1.42488        5.03289        2.77578
H          2.09927        3.75356        1.74883
C          1.28367        7.62193        0.57952
C         -0.68221        6.48086       -0.49524
C         -0.57711        6.67848        1.95340
H          1.97177        7.49982       -0.27224
H          0.75453        8.58942        0.45327
H          1.88119        7.74275        1.50598
H         -1.47533        5.71358       -0.38304
H         -1.14837        7.48089       -0.61755
H         -0.13690        6.23397       -1.39899
H         -1.34451        5.88612        2.06849
H          0.03602        6.73200        2.87479
H         -1.10170        7.65890        1.87201
