83
speciation312.ct
Na         0.72402       -0.41035        0.66836
Mg        -1.46852       -6.12292       -0.83902
C          0.91048       -2.59251        3.45117
C          1.80370       -0.53014        3.92678
O          0.95959       -1.21814        2.99659
C          0.07261       -2.81780        4.74766
C          2.10460        0.85917        3.47229
H          0.48907       -3.23209        2.65957
H          1.93028       -3.01153        3.64899
H          2.78886       -1.03727        4.06717
H          1.29965       -0.41091        4.91458
H          2.59393        0.80153        2.47882
H          1.14645        1.41405        3.46094
H          2.79150        1.35349        4.19438
H         -0.97844       -2.49479        4.61566
H          0.06779       -3.89753        5.02707
H          0.49056       -2.29927        5.64008
C         -0.52563       -5.47065       -3.68018
C          0.21800       -4.57482       -4.41679
C          0.68292       -3.63737       -3.52888
C          0.19170       -3.99575       -2.28035
N         -0.53396       -5.14276       -2.36170
C          0.36284       -3.17779       -1.02607
N         -0.13781       -1.77712       -1.14936
C         -1.59092       -1.58397       -1.50336
H          0.38608       -4.59761       -5.48202
H         -1.03313       -6.31727       -4.10067
H          1.27329       -2.75873       -3.77153
H          1.44958       -3.12439       -0.81872
H         -0.12506       -3.68082       -0.17002
C         -2.47926       -2.05485       -0.34625
C         -1.79734       -0.08930       -1.78449
C         -2.10557       -2.30387       -2.79339
H         -2.19808       -1.55221        0.59931
H         -3.55296       -1.86581       -0.56439
H         -2.36977       -3.15235       -0.22762
H         -1.20260        0.20425       -2.68032
H         -2.86602        0.13102       -2.01013
H         -1.47737        0.52852       -0.92512
H         -1.50430       -2.05151       -3.69213
H         -2.19640       -3.39632       -2.68167
H         -3.15418       -2.00024       -3.01704
Na        -4.13541       -7.06616       -1.65087
C          1.12714        2.86053        0.67217
C          0.85428        2.29856       -1.59664
O          1.05416        1.78486       -0.26480
C         -0.13860        3.71727        0.79080
C          1.82571        3.44688       -2.05471
H          1.30018        2.43489        1.65799
H          2.03864        3.48943        0.52309
H          1.01540        1.48285       -2.32396
H         -0.17620        2.66848       -1.72217
H          2.89150        3.13568       -2.05383
H          1.57559        3.77712       -3.09131
H          1.73560        4.37946       -1.44810
H         -1.01077        3.07466        1.02684
H         -0.01017        4.46416        1.60452
H         -0.34069        4.28744       -0.13977
C         -1.96968       -4.84071        1.96714
C         -2.52675       -5.31013        3.14460
C         -2.95030       -6.59677        2.89466
C         -2.64031       -6.84148        1.57544
N         -2.02940       -5.79157        1.01304
C         -2.88710       -8.08637        0.81741
N         -2.46163       -7.86195       -0.57696
C         -1.98102       -9.05914       -1.29950
H         -2.60517       -4.78113        4.08591
H         -1.53429       -3.86607        1.83075
H         -3.42425       -7.27836        3.59204
H         -3.96627       -8.34790        0.83770
H         -2.31978       -8.88009        1.33296
C         -3.07641      -10.14511       -1.38084
C         -1.62328       -8.60036       -2.71219
C         -0.71336       -9.65863       -0.64483
H         -3.98844       -9.76116       -1.88402
H         -2.70223      -11.02147       -1.95586
H         -3.35454      -10.51014       -0.36955
H         -0.73523       -7.94142       -2.65236
H         -1.37547       -9.45353       -3.37633
H         -2.46914       -8.03511       -3.16183
H          0.06659       -8.87738       -0.52283
H         -0.91621      -10.10774        0.34713
H         -0.30507      -10.47789       -1.27357
