68
speciation52.ct
Na         1.06850       -0.35787       -0.12015
Mg        -1.88755       -0.34471       -1.54438
C          0.21768       -1.80723        2.41905
C         -1.60442       -0.62229        1.44563
O         -0.19089       -0.69171        1.62757
C         -0.30949       -3.17966        1.96252
C         -2.37695       -0.34430        2.75804
H          1.32250       -1.84828        2.37777
H         -0.02557       -1.63867        3.49169
H         -1.82488        0.22856        0.77814
H         -2.01055       -1.52151        0.94231
H         -2.06869        0.62869        3.19535
H         -3.46851       -0.30407        2.54974
H         -2.22591       -1.14279        3.51494
H         -0.04765       -3.35867        0.89964
H          0.14437       -3.97917        2.58624
H         -1.40878       -3.26937        2.09838
C         -4.09530        1.75110       -1.39784
C         -3.94262        3.11669       -1.52961
C         -2.59850        3.34858       -1.73654
C         -1.98602        2.11032       -1.71982
N         -2.89930        1.14949       -1.51380
C         -0.49751        1.82619       -1.91258
N         -0.16664        0.36562       -1.85051
C          0.27638       -0.24625       -3.12443
H         -4.72267        3.86092       -1.49385
H         -5.02705        1.22195       -1.23353
H         -2.11787        4.31268       -1.88894
H          0.08319        2.35696       -1.12872
H         -0.21817        2.28096       -2.88378
C          1.57464        0.40964       -3.63806
C          0.53924       -1.73241       -2.83690
C         -0.81674       -0.15876       -4.21579
H          2.33730        0.41149       -2.83836
H          1.95882       -0.13657       -4.52634
H          1.42763        1.45846       -3.96201
H         -0.39257       -2.22913       -2.49006
H          0.89912       -2.25846       -3.74776
H          1.30090       -1.84508       -2.03932
H         -1.75640       -0.63995       -3.86987
H         -1.04575        0.88921       -4.49688
H         -0.48216       -0.68280       -5.13886
Na         3.67737       -1.85881        1.55887
C          3.98923       -3.91339       -2.28142
C          3.93085       -3.13939       -3.41894
C          4.01144       -1.82343       -3.02019
C          4.10088       -1.78675       -1.68917
N          4.09013       -3.08874       -1.14402
C          4.32649       -0.52387       -0.90980
N          3.35553       -0.25156        0.18219
C          3.71624        0.99098        0.94046
H          3.86276       -3.49908       -4.43736
H          3.97345       -4.99434       -2.26524
H          4.04819       -0.96732       -3.67938
H          4.34848        0.30983       -1.63370
H          5.33956       -0.65842       -0.48746
C          3.69269        2.25456        0.04346
C          2.68168        1.19171        2.05767
C          5.11559        0.88192        1.60866
H          2.69907        2.38103       -0.43354
H          3.91699        3.16118        0.64670
H          4.47060        2.23003       -0.74632
H          2.67248        0.32361        2.74854
H          2.92192        2.10401        2.64982
H          1.66790        1.32396        1.62708
H          5.18004       -0.02050        2.25273
H          5.94243        0.85215        0.86943
H          5.32071        1.77273        2.24109
