53
speciation911.ct
Na         1.31547        1.89216       -0.00563
C         -1.76308        1.13873       -0.00193
C         -2.39914       -0.08768       -0.02589
C         -1.40812       -1.05278       -0.05108
C         -0.20922       -0.37317       -0.03802
N         -0.43481        0.95255       -0.01014
C          1.17593       -0.99583       -0.04744
N          2.24500        0.03300       -0.00400
C          3.14613        0.02971        1.16748
H         -3.46655       -0.25726       -0.02522
H         -2.23904        2.10910        0.01839
H         -1.54723       -2.12505       -0.07239
H          1.29353       -1.58770       -0.97908
H          1.23975       -1.70314        0.80170
C          3.96461       -1.27730        1.23179
C          4.12260        1.20778        0.99685
C          2.36215        0.25063        2.47844
H          4.53292       -1.42429        0.28823
H          4.68824       -1.24008        2.07480
H          3.32010       -2.16467        1.39079
H          3.57471        2.17297        0.95241
H          4.84557        1.25425        1.83993
H          4.69482        1.10751        0.05611
H          1.79019        1.20232        2.42857
H          1.64949       -0.57230        2.68304
H          3.06143        0.31132        3.34062
Na         3.59933        0.09296       -1.94799
Mg         5.39990       -1.61715       -4.32744
C          4.44213       -2.45414       -7.07836
C          3.74072       -1.67985       -7.98586
C          3.55556       -0.43929       -7.39998
C          4.15324       -0.50986       -6.16119
N          4.68431       -1.72954       -5.97320
C          4.23249        0.60084       -5.11594
N          4.95365        0.15292       -3.89199
C          6.20764        0.85037       -3.54482
H          3.40340       -1.98797       -8.96526
H          4.75309       -3.47969       -7.21110
H          3.04754        0.41379       -7.83024
H          3.20157        0.89153       -4.82862
H          4.70652        1.48345       -5.58563
C          5.93795        2.33377       -3.21452
C          6.77602        0.16431       -2.29027
C          7.25308        0.72077       -4.67180
H          5.18931        2.41864       -2.39762
H          6.87415        2.83489       -2.88605
H          5.55621        2.89113       -4.09332
H          6.98217       -0.90914       -2.48949
H          7.71918        0.65097       -1.95981
H          6.05140        0.21401       -1.45641
H          7.45049       -0.35117       -4.88966
H          6.92169        1.21090       -5.60822
H          8.21051        1.19565       -4.36533
