95
speciation1394.ct
Na         3.54116        4.83740        2.80634
Mg         2.25228        4.58771       -1.10864
C          2.15992        4.99580        5.77344
C          0.68664        5.82056        4.11879
O          2.01634        5.45232        4.44316
C          3.62057        4.68224        6.05615
C         -0.30228        4.64794        4.09332
H          1.84339        5.78798        6.48811
H          1.59284        4.05683        5.94470
H          0.32909        6.62270        4.80187
H          0.70466        6.27372        3.10542
H         -0.43015        4.19695        5.09853
H         -1.30025        5.02081        3.77878
H          0.03240        3.86989        3.37654
H          4.24690        5.58398        5.89533
H          3.72882        4.35083        7.11162
H          3.97053        3.86526        5.38982
H          0.67636        6.60753       -1.70985
C          2.66343        7.50402       -1.59169
C          1.60461        6.52217       -1.10572
C          3.01614        7.25425       -3.05908
H          2.26536        8.53677       -1.47991
H          3.56765        7.39599       -0.95706
H          3.40123        6.21918       -3.18733
H          2.10346        7.37822       -3.68204
C          4.07504        8.24485       -3.53664
H          1.36193        6.75078       -0.04637
H          3.71661        9.28866       -3.40364
H          5.01661        8.10869       -2.96296
H          4.28489        8.07688       -4.61358
C          6.27618        4.78637        0.84303
C          6.81784        4.20690       -0.28315
C          5.93067        3.23091       -0.69607
C          4.87319        3.25926        0.19730
N          5.09884        4.20924        1.13423
C          3.62054        2.39258        0.12424
N          2.88408        2.70067       -1.11149
C          1.62514        2.02770       -1.45631
H          7.74837        4.48497       -0.76150
H          6.69887        5.61401        1.39979
H          6.04298        2.59594       -1.56283
H          3.92239        1.32473        0.13903
H          2.98528        2.61089        1.00670
C          0.59582        2.15687       -0.32370
C          1.08408        2.76303       -2.70539
C          1.88022        0.56444       -1.82601
H          0.44067        3.22755       -0.06878
H         -0.37877        1.72443       -0.63682
H          0.93583        1.61984        0.58477
H          1.82905        2.73719       -3.53166
H          0.14277        2.30301       -3.07177
H          0.87494        3.83064       -2.48292
H          2.64214        0.50919       -2.63061
H          2.24739       -0.01729       -0.95813
H          0.94436        0.09425       -2.20236
Na         4.19407        2.30909       -3.04732
Mg         7.20171        1.01800       -4.46450
H          8.96420       -0.94723       -4.31361
C          9.05245        0.14229       -2.41677
C          8.94201        0.09590       -3.93280
C          7.86872       -0.56750       -1.76104
H         10.00717       -0.33464       -2.10479
H          9.06320        1.20881       -2.10124
H          6.91837       -0.08704       -2.08387
H          7.85467       -1.63483       -2.06977
C          7.96739       -0.48982       -0.23939
H          9.78939        0.66250       -4.37325
H          8.90590       -0.97120        0.11058
H          7.95582        0.57039        0.09409
H          7.10417       -1.01621        0.21823
C          2.21796       -1.34050       -4.70372
C          3.39548       -1.98140       -4.38902
C          4.44229       -1.14376       -4.75632
C          3.92083       -0.03522       -5.28396
N          2.50649       -0.09065       -5.27191
C          4.67033        1.11332       -5.91252
N          5.50407        1.91750       -4.98316
C          6.04587        3.15327       -5.61242
H          3.46141       -2.96494       -3.94172
H          1.21579       -1.72816       -4.55305
H          5.49187       -1.37433       -4.67070
H          3.87551        1.74610       -6.34463
H          5.28118        0.68879       -6.73199
C          4.92907        4.15968       -5.98406
C          6.97552        3.83061       -4.59375
C          6.88388        2.82439       -6.87489
H          4.32150        4.41668       -5.09128
H          5.37628        5.09649       -6.38816
H          4.25869        3.78088       -6.77993
H          7.80794        3.15044       -4.30926
H          7.42483        4.75382       -5.02470
H          6.41987        4.11037       -3.67427
H          7.69538        2.10600       -6.62566
H          6.26312        2.39019       -7.68457
H          7.34430        3.74289       -7.29428
