95
speciation1261.ct
Na         1.42822        0.56417       -0.23144
Mg        -0.89775        1.67394        0.65033
C         -0.05438       -2.28809       -0.84394
C         -0.39437       -0.78389       -2.61773
O          0.07636       -0.91992       -1.26801
C          0.79690       -3.29137       -1.62591
C         -0.46126        0.67401       -3.01797
H          0.23278       -2.34878        0.21193
H         -1.13174       -2.61871       -0.89257
H          0.29633       -1.28047       -3.32670
H         -1.42876       -1.19378       -2.73163
H          0.54426        1.12924       -2.93045
H         -0.79946        0.74073       -4.07610
H         -1.18301        1.21177       -2.37357
H          1.82470       -2.96274       -1.57539
H          0.75671       -4.29793       -1.16742
H          0.50591       -3.38846       -2.69334
H         -3.37804        2.73594        1.13610
C         -4.76587        1.30253        0.71770
C         -3.32342        1.82846        0.50612
C         -5.11612        0.01067       -0.01268
H         -4.97493        1.17497        1.80155
H         -5.47867        2.08590        0.34840
H         -6.19691       -0.21137        0.14969
H         -4.95353        0.12361       -1.10736
C         -4.30637       -1.15654        0.53271
H         -3.32522        2.10703       -0.56978
H         -3.22791       -0.97063        0.37042
H         -4.50839       -1.26981        1.62185
H         -4.60390       -2.08817        0.01521
C          5.29850        4.60941       -0.91326
C          4.86295        5.70543       -0.21506
C          3.48386        5.58331       -0.08198
C          3.13087        4.39255       -0.70912
N          4.26554        3.80876       -1.20413
C          1.67253        3.84982       -0.92784
N          1.04236        2.95135        0.11514
C          0.04549        3.70752        0.92276
H          5.48641        6.50955        0.16126
H          6.33318        4.37814       -1.16496
H          2.83725        6.30799        0.39759
H          1.65062        3.32572       -1.90766
H          1.09755        4.77197       -1.10847
C         -1.18800        3.78213       -0.04412
C          0.20032        5.21228        1.39245
C          0.14276        2.91394        2.24444
H         -2.10177        4.18096        0.41647
H         -0.99746        4.53483       -0.84381
H         -1.32636        2.88907       -0.68759
H         -0.35868        5.30957        2.36922
H          1.22020        5.50752        1.60967
H         -0.35626        5.94242        0.78862
H         -0.67496        3.11370        2.95458
H          0.33954        1.83847        2.08087
H          1.10071        3.20482        2.73186
Na         3.55082       -1.81864        2.08678
Mg         3.80855        2.04958       -2.01441
H         -1.21124        0.97126        3.41966
C         -0.75439       -0.97494        2.64629
C         -1.47182        0.37403        2.51621
C         -1.01082       -1.66014        4.00750
H         -1.13202       -1.62121        1.83405
H          0.34069       -0.82035        2.52511
H         -0.59485       -1.02831        4.82848
H         -2.09902       -1.78298        4.17611
C         -0.34303       -3.03622        4.06981
H         -2.56386        0.21102        2.58711
H         -0.75951       -3.69623        3.28123
H          0.75509       -2.94536        3.92762
H         -0.53307       -3.50310        5.05850
C          3.09654        0.11071       -4.13625
C          3.10073       -1.22821       -4.42878
C          3.35463       -1.89236       -3.25317
C          3.47496       -0.94019       -2.24697
N          3.35156        0.29041       -2.82468
C          3.89291       -1.32622       -0.80162
N          3.40152       -0.53884        0.38220
C          4.36886        0.46793        0.91031
H          2.99082       -1.67019       -5.41676
H          3.03148        0.93603       -4.85104
H          3.48327       -2.95996       -3.15032
H          4.98977       -1.52205       -0.78630
H          3.55602       -2.35856       -0.60908
C          4.55755        1.44410       -0.12896
C          3.74382        1.21740        2.11623
C          5.79158       -0.03759        1.29697
H          3.51201        1.78518       -0.28889
H          5.21912        2.24763        0.22905
H          5.04263        0.98682       -1.02406
H          3.70163        0.58313        3.01653
H          4.33680        2.13135        2.36346
H          2.71303        1.55542        1.87916
H          5.78153       -0.66620        2.19863
H          6.31704       -0.55732        0.47329
H          6.44438        0.84152        1.51131
