81
speciation663.ct
Na         1.78212        0.14618       -1.06975
Mg         2.27169       -0.08322        1.00637
C          4.77996       -0.19107        0.75846
C          5.04842       -0.91850        2.75899
O          4.10712       -0.28446        1.91617
C          4.81171       -1.58646        0.01961
C          4.51704       -0.84645        4.16529
H          4.36711        0.77513        0.39025
H          5.73876        0.31466        0.84152
H          5.23605       -1.93773        2.43365
H          6.10176       -0.51476        2.65441
H          3.48760       -1.23349        4.11589
H          5.12952       -1.42697        4.87563
H          4.44648        0.18109        4.56574
H          4.13893       -0.94619       -0.22797
H          4.43853       -2.25722       -0.87234
H          5.31158       -2.37106        0.44989
H          1.07086       -0.84652        3.45880
C         -0.59479       -0.09942        2.42159
C          0.89842       -0.11411        2.68688
C         -1.27922       -0.37219        3.69848
H         -0.92070        0.84786        2.01083
H         -0.95303       -0.87062        1.76453
H         -2.35735       -0.53778        3.49670
H         -0.89642       -1.36826        4.05090
C         -1.03325        0.89313        4.56062
H          1.23015        0.45820        3.50532
H         -0.01194        1.26176        4.81244
H         -1.38579        1.73852        3.93890
H         -1.51645        0.79874        5.53072
C          5.62148        1.08658       -1.48562
C          6.52872       -0.05144       -1.50492
C          5.84194       -1.03009       -2.16417
C          4.44735       -0.48379       -2.34928
N          4.27345        0.63674       -1.84736
C          2.92404       -1.16848       -2.15105
N          2.25774       -1.40512       -0.61231
C          2.15221       -2.68261        0.28889
H          7.38418       -0.30701       -0.73777
H          6.06374        1.80575       -0.75547
H          6.24742       -2.01924       -2.03385
H          2.53051       -1.83282       -2.84280
H          2.36979       -0.25170       -2.68097
C          3.27484       -3.51881        1.05386
C          1.32465       -2.51737        1.57095
C          1.62423       -3.56956       -0.68588
H          3.70283       -3.07281        1.97696
H          2.83597       -4.41404        1.54532
H          4.01422       -3.97374        0.41590
H          0.42232       -2.09069        1.28491
H          1.00677       -3.37982        2.21023
H          2.00469       -2.04180        2.32664
H          0.70404       -3.08718       -1.07557
H          2.46322       -3.53254       -1.41035
H          1.54763       -4.57996       -0.29927
Mg         2.65643        1.81856       -1.49329
C         -1.90104       -0.88333       -0.35251
C         -2.85064        0.03867        0.06229
C         -2.18247        1.28308        0.00994
C         -0.92507        0.98925       -0.35552
N         -0.60013       -0.19864       -0.59573
C          0.27100        1.89626       -0.53900
N          1.60789        1.68996        0.18928
C          2.03378        2.77110        1.04371
H         -3.82751       -0.08757        0.40181
H         -2.10866       -1.95854       -0.35642
H         -2.50623        2.24938        0.25932
H         -0.21349        2.77336       -0.22902
H          0.49885        1.85061       -1.63974
C          1.07565        2.89656        2.18769
C          3.42602        2.57338        1.65791
C          2.07042        4.01254        0.23480
H          1.33908        2.18576        2.88194
H          1.31051        3.71424        2.84598
H          0.01303        2.85267        1.90468
H          4.24552        2.67247        0.91597
H          3.64584        3.35048        2.39016
H          3.41119        1.68669        2.30123
H          2.76639        3.88318       -0.62626
H          1.08082        4.22675       -0.14462
H          2.32497        4.81479        0.93005
