96
speciation1123.ct
Na         2.29169        0.20026        1.05415
Mg        -1.76902        4.57213        1.71917
C          2.76476        1.55699        3.12611
C          4.69227        0.21270        3.08237
O          3.27859        0.26810        2.93380
C          2.73212        2.04983        4.55698
C          5.01724       -0.51862        4.38782
H          3.27832        2.28563        2.47749
H          1.70721        1.45305        2.82362
H          5.13543       -0.36618        2.24406
H          5.18992        1.20834        3.08549
H          4.61035       -1.55353        4.36766
H          6.11437       -0.57005        4.54589
H          4.56707        0.01351        5.25047
H          2.51756        1.23035        5.27018
H          1.91795        2.80487        4.63416
H          3.68961        2.55332        4.80114
H         -1.38554        3.77106        4.29202
C         -0.14862        5.55890        4.23288
C         -0.76428        4.32926        3.55971
C         -1.20184        6.48970        4.84365
H          0.52353        5.21182        5.04928
H          0.45985        6.10578        3.48119
H         -1.90433        6.83576        4.05737
H         -1.77492        5.94080        5.62455
C         -0.54289        7.70938        5.49154
H          0.06032        3.66651        3.23990
H          0.15378        7.39769        6.29996
H          0.02258        8.28946        4.73158
H         -1.31976        8.36918        5.93295
C         -0.39645        6.00921       -0.30529
C          0.67059        6.26311       -1.13767
C          1.55863        5.23327       -0.96473
C          0.99708        4.37319       -0.04703
N         -0.21801        4.86055        0.37608
C          1.73902        3.18794        0.53100
N          2.03141        1.96380       -0.26949
C          2.78849        1.78009       -1.52084
H          0.80763        7.12883       -1.76978
H         -1.25284        6.65788       -0.17685
H          2.53488        5.15146       -1.41858
H          1.07253        2.84877        1.34146
H          2.67409        3.58740        0.95803
C          4.22517        2.30290       -1.42688
C          2.86770        0.26204       -1.77948
C          2.02425        2.38091       -2.71963
H          4.75337        1.80721       -0.58295
H          4.77747        2.05752       -2.36305
H          4.24864        3.39849       -1.27958
H          1.85201       -0.15773       -1.88133
H          3.41773        0.02351       -2.71643
H          3.38854       -0.25746       -0.94881
H          0.97281        2.01832       -2.71621
H          2.01389        3.47538       -2.71145
H          2.49141        2.07085       -3.67914
Mg         0.48867        1.15675       -0.57908
C         -4.24264        4.52341        3.09274
C         -4.37601        4.33884        0.72440
O         -3.70550        4.92777        1.83461
C         -4.25970        3.00895        3.32663
C         -5.86355        4.72244        0.59395
H         -3.61133        4.98134        3.87911
H         -5.25293        4.95948        3.26502
H         -3.87360        4.69900       -0.19538
H         -4.26923        3.23740        0.72957
H         -5.98525        5.81854        0.46801
H         -6.28883        4.21846       -0.30139
H         -6.46528        4.38461        1.46297
H         -3.25611        2.58648        3.11800
H         -4.53612        2.79711        4.38103
H         -5.01668        2.51197        2.68484
C         -2.20663        0.77390        0.18503
C         -3.04113       -0.27499        0.47041
C         -2.28943       -1.42950        0.29132
C         -1.03299       -1.02215       -0.11171
N         -1.01153        0.30751       -0.18284
C          0.14267       -1.90534       -0.47823
N          1.38233       -1.67263        0.32058
C          2.08223       -2.88202        0.79437
H         -4.07320       -0.21394        0.79409
H         -2.44968        1.83814        0.21270
H         -2.62238       -2.44489        0.43594
H         -0.21612       -2.94737       -0.38291
H          0.37313       -1.75738       -1.55360
C          2.33021       -3.89781       -0.34590
C          3.47340       -2.51353        1.33712
C          1.26921       -3.46732        1.95875
H          2.95357       -3.42612       -1.14171
H          2.88110       -4.78096        0.04300
H          1.40465       -4.27731       -0.81402
H          3.36038       -1.90578        2.23612
H          4.03292       -3.42027        1.65504
H          4.08397       -1.97395        0.58165
H          1.17346       -2.69353        2.75580
H          0.24188       -3.73921        1.64672
H          1.76619       -4.35883        2.39087
