110
speciation2577.ct
Na         1.21185        0.59090       -0.40273
Mg         3.23750       -1.68176        4.71050
C          4.74997       -4.11424        5.08511
C          3.42065       -3.37775        6.92782
O          4.11337       -3.02183        5.74732
C          3.85773       -5.29871        4.72957
C          4.37381       -3.77489        8.05727
H          5.15512       -3.75345        4.12627
H          5.64748       -4.43850        5.65431
H          2.87487       -2.48135        7.27842
H          2.64429       -4.14521        6.74414
H          5.08213       -2.94523        8.27012
H          3.78731       -3.99282        8.97380
H          4.94849       -4.68698        7.79614
H          3.00122       -4.95675        4.11520
H          4.45718       -6.02671        4.14117
H          3.50454       -5.82358        5.63820
H          2.71850        0.81907        5.40252
C          4.52195        0.57271        6.50237
C          3.18587        0.02375        5.97654
C          4.28769        1.81930        7.37898
H          5.03140       -0.21487        7.09592
H          5.17384        0.84855        5.64316
H          3.79943        2.61743        6.77608
H          3.61653        1.55471        8.22409
C          5.58745        2.37704        7.95861
H          2.52190       -0.22714        6.82642
H          6.08829        1.61339        8.59033
H          6.27648        2.69459        7.14782
H          5.36105        3.26161        8.59376
C          5.76949       -1.43542        3.45463
C          6.43219       -1.27065        2.28176
C          5.45271       -1.07523        1.35595
C          4.26010       -1.07180        1.93699
N          4.42424       -1.37073        3.24599
C          2.98825       -0.73386        1.18393
N          3.13678       -0.33633       -0.24994
C          2.96834       -1.49564       -1.22712
H          7.50129       -1.30239        2.10845
H          6.22243       -1.61960        4.41781
H          5.47854       -0.93950        0.35666
H          2.59237        0.14121        1.65792
H          2.19888       -1.45386        1.34907
C          1.99272       -2.61022       -0.72992
C          2.36948       -0.98787       -2.55429
C          4.30229       -2.18887       -1.54883
H          0.99391       -2.18330       -0.49081
H          1.85156       -3.40347       -1.49398
H          2.39344       -3.14680        0.15900
H          2.99852       -0.22511       -3.03210
H          2.26434       -1.83087       -3.27863
H          1.35736       -0.56404       -2.40121
H          5.00957       -1.46110       -1.98399
H          4.72920       -2.68506       -0.65374
H          4.15983       -2.99738       -2.29954
Na         4.83206        5.10255       -1.04169
Mg         4.61082        1.33667       -0.10709
C          3.62070        3.75422        1.36877
C          3.49000        2.07939        2.98349
O          4.03643        2.42952        1.69145
C          4.19712        4.82570        2.31338
C          1.91930        2.20034        3.12243
H          3.97126        3.97012        0.38101
H          2.51880        3.85780        1.25304
H          3.79431        1.05022        3.23446
H          3.97603        2.64675        3.78476
H          1.33551        1.57825        2.41609
H          1.56568        1.91794        4.12533
H          1.55428        3.23616        3.02000
H          5.29441        4.70953        2.39372
H          3.95965        5.84273        1.93421
H          3.75112        4.76255        3.32566
H          1.09946       -1.42054        3.14087
C          0.10705       -2.91308        4.26378
C          1.39791       -2.33725        3.68778
C         -0.96444       -3.26252        3.19252
H          0.34563       -3.82353        4.84904
H         -0.32534       -2.14882        4.94193
H         -1.87187       -3.60808        3.73268
H         -1.24626       -2.36308        2.60018
C         -0.56401       -4.38269        2.22289
H          1.82239       -3.08745        2.98654
H          0.25484       -4.06262        1.54658
H         -0.25314       -5.29027        2.78128
H         -1.43747       -4.65356        1.58725
C          7.27961       -0.49576       -1.06862
C          8.40789       -0.10947       -1.74380
C          8.32358        1.25457       -1.86617
C          7.14685        1.62591       -1.23713
N          6.47912        0.56834       -0.79869
C          6.54008        2.97742       -1.07138
N          5.10140        2.97478       -1.44609
C          4.83860        2.98811       -2.91190
H          9.17347       -0.77456       -2.12367
H          7.05939       -1.53701       -0.86193
H          9.03891        1.88782       -2.37911
H          7.15238        3.76688       -1.54836
H          6.58590        3.18362        0.01648
C          5.26881        1.68478       -3.60077
C          3.32427        3.16226       -3.09202
C          5.52627        4.19377       -3.62292
H          4.85234        0.82000       -3.05919
H          4.91396        1.66739       -4.65283
H          6.36611        1.58022       -3.64872
H          2.98838        4.11289       -2.62172
H          3.06299        3.20468       -4.17209
H          2.77110        2.32678       -2.61730
H          5.13584        5.16461       -3.24407
H          6.62712        4.20819       -3.52235
H          5.32946        4.16794       -4.71393
