110
speciation2281.ct
Na         5.18366       -0.21099        2.66349
Mg         2.16380       -0.06732       -2.97528
C          6.72038        1.71331        4.73528
C          4.58882        1.02361        5.49103
O          5.39726        1.34400        4.37193
C          7.46093        0.72993        5.65622
C          3.19764        0.60791        5.03108
H          7.30167        1.78964        3.79337
H          6.71972        2.73153        5.18335
H          4.99039        0.15921        6.05962
H          4.47759        1.91483        6.14821
H          3.26006       -0.29843        4.39153
H          2.57162        0.36914        5.91813
H          2.71003        1.42548        4.46462
H          7.43021       -0.29609        5.23475
H          8.51963        1.04764        5.75947
H          7.02623        0.73108        6.67873
H         -0.07345        1.04450       -3.83518
C         -1.33881        0.55068       -2.18023
C         -0.12540        0.20017       -3.11855
C         -1.91239       -0.56633       -1.27382
H         -1.15005        1.47334       -1.58851
H         -2.18527        0.78726       -2.86608
H         -2.91808       -0.25214       -0.90389
H         -2.06565       -1.48207       -1.88036
C         -1.09363       -0.88202       -0.02790
H         -0.43097       -0.71171       -3.67501
H         -1.54194       -1.76520        0.48163
H         -0.04434       -1.10710       -0.28890
H         -1.13903       -0.03056        0.68745
C          1.96494       -2.99207       -2.31695
C          2.28055       -4.04984       -1.50894
C          2.90145       -3.52260       -0.42796
C          3.01327       -2.16346       -0.63426
N          2.43668       -1.81266       -1.82085
C          3.70417       -1.25738        0.34054
N          4.96545       -1.79949        0.91822
C          6.09266       -2.00943       -0.06766
H          2.04747       -5.10931       -1.65768
H          1.43125       -3.11027       -3.24247
H          3.28872       -4.07666        0.39062
H          3.00228       -1.14802        1.19463
H          3.84521       -0.25593       -0.09723
C          6.44529       -0.71336       -0.82425
C          7.32227       -2.51077        0.70735
C          5.81173       -3.10538       -1.14232
H          6.60993        0.12727       -0.12274
H          7.36513       -0.86234       -1.43341
H          5.63625       -0.44110       -1.53734
H          7.08935       -3.47566        1.20886
H          8.16844       -2.70459        0.00717
H          7.65347       -1.77584        1.46617
H          5.55067       -4.08170       -0.67617
H          5.02905       -2.81847       -1.87126
H          6.70321       -3.27749       -1.78127
Na         4.74236       -3.96833        1.84736
Mg         5.01359       -0.80995       -3.89864
C          3.17230       -6.46663        3.01069
C          5.27124       -6.41809        3.92070
O          4.52398       -6.09140        2.75690
C          2.24789       -6.14857        1.84965
C          6.73901       -6.06110        3.77489
H          3.11472       -7.57008        3.14855
H          2.76278       -5.94944        3.91027
H          4.87367       -5.90636        4.82813
H          5.23989       -7.52292        4.07480
H          6.86686       -4.96073        3.73415
H          7.28707       -6.45120        4.66224
H          7.16316       -6.53112        2.86409
H          2.63929       -6.58029        0.90353
H          1.24245       -6.57600        2.04906
H          2.10572       -5.05804        1.77927
H          3.92971        1.96664       -2.11294
C          2.48372        2.97229       -0.89136
C          2.81938        2.04342       -2.08080
C          2.91909        2.37853        0.44500
H          3.02143        3.94364       -1.02191
H          1.39786        3.18313       -0.87946
H          2.40393        1.40963        0.58305
H          4.02439        2.22567        0.44337
C          2.55344        3.29547        1.61227
H          2.47998        2.70823       -2.88994
H          3.07113        4.27634        1.53467
H          1.45561        3.46628        1.63842
H          2.85892        2.81362        2.56176
C          5.20256       -3.29285       -8.03283
C          6.00360       -3.34677       -6.91604
C          5.27527       -2.82780       -5.85477
C          4.07898       -2.45118       -6.31072
N          3.95411       -2.74649       -7.69172
C          2.98062       -1.77519       -5.49507
N          3.35774       -0.47192       -4.86876
C          3.72570        0.59395       -5.87978
H          7.01816       -3.71761       -6.88338
H          5.48846       -3.60738       -9.03157
H          5.62652       -2.71374       -4.83937
H          2.76197       -2.49080       -4.70972
H          2.06107       -1.65842       -6.10455
C          2.57123        0.90654       -6.85811
C          4.07475        1.86893       -5.12898
C          5.00945        0.27880       -6.70691
H          1.65322        1.19130       -6.30351
H          2.85272        1.74561       -7.53368
H          2.34645        0.03912       -7.51080
H          4.87488        1.68117       -4.37804
H          4.41550        2.67626       -5.81437
H          3.15827        2.23374       -4.68421
H          5.85090       -0.02227       -6.04752
H          4.85455       -0.46866       -7.49725
H          5.33794        1.16891       -7.28802
