110
speciation2405.ct
Na         5.35741        2.34283        2.80640
Mg         1.03085        4.28680       -3.15332
C          8.69887        3.48979        2.82033
C          8.12492        1.29004        2.52208
O          7.66024        2.54144        3.00626
C          8.29682        4.87233        3.29583
C          7.06303        0.20563        2.67227
H          9.55810        3.18996        3.46609
H          9.03840        3.55434        1.75993
H          8.37839        1.34746        1.43792
H          9.00485        0.94482        3.11483
H          6.17148        0.43875        2.05145
H          7.46827       -0.76435        2.31113
H          6.76258        0.09429        3.73426
H          7.85123        4.81578        4.31013
H          9.20874        5.50937        3.34474
H          7.58007        5.32985        2.58498
H         -0.87584        5.38812       -5.67058
C          0.19090        4.09034       -7.01362
C          0.16147        5.00099       -5.73430
C          0.00953        4.78289       -8.40860
H          1.16410        3.62896       -7.05898
H         -0.56264        3.28638       -6.90710
H         -0.99679        5.24278       -8.49629
H          0.77121        5.58358       -8.55829
C          0.19047        3.78497       -9.57820
H          0.76839        5.86639       -6.05487
H          1.22094        3.36493       -9.59201
H         -0.53135        2.94492       -9.50445
H          0.02882        4.28356      -10.56251
C          2.09512        1.78430        3.52024
C          0.87833        1.55809        2.91110
C          1.03178        1.79897        1.55349
C          2.34780        2.18287        1.34357
N          3.00496        2.13995        2.60223
C          2.95672        2.44239       -0.15422
N          2.55121        3.56734       -1.17492
C          2.57015        4.87685       -0.47188
H         -0.01702        1.20427        3.40520
H          2.32265        1.62665        4.56665
H          0.27307        1.66085        0.79525
H          4.04635        2.53957        0.01492
H          2.85977        1.47379       -0.68741
C          3.82426        5.14075        0.40338
C          2.54681        5.95690       -1.52278
C          1.28888        4.98096        0.39552
H          4.74938        5.05270       -0.20789
H          3.77626        6.17170        0.81845
H          3.90980        4.45719        1.26926
H          1.87905        5.67740       -2.31225
H          2.16654        6.89011       -1.07814
H          3.53010        6.11603       -2.00378
H          0.39591        4.64259       -0.17200
H          1.34287        4.38239        1.31779
H          1.12914        6.01174        0.76417
Na         5.40528        1.36908       -5.61126
Mg         3.99844        2.85773       -2.59562
C          5.95408        0.85579       -2.87458
C          6.84497        2.82681       -1.87184
O          5.87029        2.27599       -2.74994
C          5.93608        0.08234       -1.55438
C          8.28996        2.65937       -2.38644
H          5.06469        0.51811       -3.43404
H          6.81452        0.55417       -3.51289
H          6.65973        3.91798       -1.78664
H          6.74550        2.41842       -0.84956
H          8.43682        3.21894       -3.33765
H          9.00128        3.05306       -1.63233
H          8.55751        1.59738       -2.55736
H          5.07750        0.41694       -0.94052
H          5.83218       -1.00272       -1.76385
H          6.88313        0.22203       -0.99448
H         -1.31508        6.19485       -3.12067
C          0.10808        7.80684       -2.91544
C         -0.33860        6.31641       -2.60787
C          0.25876        8.09074       -4.41623
H         -0.64622        8.51826       -2.50743
H          1.06781        8.07167       -2.43747
H          1.05130        7.43100       -4.78500
H         -0.71266        7.89648       -4.92132
C          0.71021        9.51163       -4.78152
H         -0.54546        6.26610       -1.51998
H         -0.01504       10.28061       -4.44447
H          1.71260        9.73316       -4.35669
H          0.79468        9.58343       -5.89086
C         -0.23647        1.88753       -2.51848
C         -0.21223        0.52182       -2.61691
C          0.82759        0.20216       -3.45293
C          1.42224        1.39169       -3.85740
N          0.72098        2.41642       -3.29599
C          2.64256        1.42551       -4.80517
N          3.81041        2.33254       -4.56364
C          3.85897        3.60212       -5.30916
H         -0.86146       -0.15286       -2.10302
H         -0.91172        2.47528       -1.91779
H          1.13528       -0.80271       -3.73175
H          2.28759        1.41113       -5.83769
H          3.06120        0.39714       -4.73656
C          2.81011        4.48008       -4.78197
C          5.17714        4.37780       -5.10594
C          3.76134        3.40095       -6.88011
H          3.01803        4.61260       -3.72034
H          2.75851        5.46751       -5.28320
H          1.91166        3.87647       -4.86021
H          6.04776        3.82511       -5.50049
H          5.13535        5.36409       -5.64768
H          5.33639        4.60700       -4.03365
H          4.68439        2.96832       -7.29486
H          2.96858        2.73369       -7.23985
H          3.59293        4.38810       -7.39236
