81
speciation622.ct
Na        -0.25891        8.29527       -3.03277
Mg        -3.10336       -0.32182        1.35918
C         -4.15853        0.78611       -0.77127
C         -5.62902        1.20657        1.02322
O         -4.65655        0.32660        0.47370
C         -3.58311        2.20940       -0.74691
C         -6.15756        0.69074        2.35115
H         -3.31963        0.10458       -1.02641
H         -4.91256        0.66498       -1.57826
H         -5.22500        2.22093        1.21786
H         -6.49734        1.26815        0.32781
H         -5.34044        0.66340        3.10102
H         -6.95462        1.37556        2.71595
H         -6.59980       -0.31636        2.23665
H         -2.93379        2.33350        0.13335
H         -2.99535        2.39981       -1.66913
H         -4.38552        2.97202       -0.69019
H         -3.05820       -2.85374        2.27210
C         -5.05126       -2.92681        1.42818
C         -3.92869       -2.17338        2.15649
C         -4.65162       -3.35976        0.01635
H         -5.31545       -3.83024        2.02447
H         -5.94915       -2.28177        1.36649
H         -4.40298       -2.46018       -0.58543
H         -3.76059       -4.02257        0.06218
C         -5.79361       -4.11692       -0.66674
H         -4.30965       -1.93734        3.17194
H         -6.03663       -5.04624       -0.10666
H         -6.70361       -3.48137       -0.72219
H         -5.49456       -4.39591       -1.69893
C          0.89652        7.14243        1.60608
C          0.43578        8.31913        1.05231
C         -0.17647        7.98463       -0.13588
C         -0.05540        6.61504       -0.26356
N          0.59470        6.10489        0.80196
C         -0.56000        5.79259       -1.41863
N          0.11532        6.22706       -2.65123
C         -0.23189        5.51493       -3.90188
H          0.53772        9.31397        1.46598
H          1.43117        7.05382        2.54223
H         -0.64696        8.66728       -0.82491
H         -1.65701        5.93488       -1.49571
H         -0.33874        4.72523       -1.20711
C         -1.71838        5.69931       -4.26706
C          0.62650        6.13164       -5.01790
C          0.09974        4.00595       -3.81230
H         -1.97051        6.77917       -4.33370
H         -1.93599        5.23070       -5.25217
H         -2.38481        5.22178       -3.52042
H          1.70778        6.01736       -4.78513
H          0.42437        5.64700       -5.99707
H          0.41045        7.21741       -5.11889
H          1.16918        3.85747       -3.55093
H         -0.52994        3.49196       -3.05799
H         -0.09310        3.51078       -4.78962
Mg         1.04981        4.23484        1.11290
C          2.92164        1.99635        1.12118
C          3.01371        0.62732        0.98271
C          1.72447        0.15472        0.84963
C          0.89861        1.25835        0.93268
N          1.63299        2.37999        1.07863
C         -0.60136        1.24220        0.88201
N         -1.21545        0.32240        1.87390
C         -1.05162        0.62924        3.32046
H          3.92236        0.04217        0.97270
H          3.75314        2.68011        1.23541
H          1.42175       -0.87424        0.71972
H         -0.97321        2.27790        1.00754
H         -0.88953        0.89486       -0.13122
C         -1.54768        2.04586        3.67382
C         -1.89812       -0.38888        4.08925
C          0.40958        0.45369        3.79596
H         -2.60628        2.17734        3.36463
H         -1.47484        2.21526        4.77052
H         -0.92947        2.82601        3.18343
H         -1.57674       -1.42422        3.84010
H         -1.80007       -0.24580        5.18662
H         -2.96446       -0.25936        3.82480
H          0.79950       -0.54366        3.49703
H          1.07959        1.24248        3.41085
H          0.47503        0.53434        4.90154
