95
speciation1833.ct
Na         6.16684        1.54777        2.25435
Mg         2.81889        3.45222       -3.38691
C          3.52266        6.37626       -5.00734
C          1.28844        5.59318       -5.16412
O          2.56913        5.39548       -4.53157
C          3.20748        7.83655       -4.63524
C          1.22984        5.56475       -6.71615
H          4.51657        6.16875       -4.59438
H          3.65974        6.34036       -6.11013
H          0.60940        4.78292       -4.84809
H          0.82617        6.53003       -4.79299
H          1.52045        4.57335       -7.11858
H          0.18068        5.75875       -7.03495
H          1.82961        6.35557       -7.21294
H          3.19678        7.95476       -3.53508
H          3.99089        8.50852       -5.05740
H          2.24684        8.18854       -5.06514
H          7.25834       -0.51342       -6.09991
C          9.36137       -0.61278       -5.71355
C          8.10959        0.19173       -6.00789
C          9.23990       -1.34150       -4.38079
H          9.50244       -1.35470       -6.53425
H         10.23628        0.07074       -5.69936
H          9.10559       -0.59346       -3.57062
H          8.35790       -2.01988       -4.39705
C         10.49362       -2.16528       -4.10898
H          8.27105        0.63414       -7.00892
H         10.62010       -2.94476       -4.89164
H         11.38978       -1.50877       -4.10306
H         10.40445       -2.66128       -3.12102
C          5.77964       -0.57287       -0.02013
C          5.07192       -0.83967       -1.17339
C          4.23815        0.23843       -1.38592
C          4.48481        1.12400       -0.35501
N          5.41522        0.62056        0.47858
C          3.85711        2.46069       -0.11921
N          2.84182        2.81548       -1.13162
C          2.17484        4.13075       -0.84840
H          5.15473       -1.72386       -1.78920
H          6.52205       -1.21575        0.43393
H          3.53868        0.35566       -2.20089
H          3.38413        2.38989        0.88145
H          4.67529        3.20400       -0.09453
C          3.20482        5.28173       -0.95413
C          1.03908        4.36144       -1.86868
C          1.45900        4.18527        0.51813
H          3.76887        5.21753       -1.91001
H          2.71132        6.27430       -0.89710
H          3.93365        5.24526       -0.11759
H          0.27929        3.55520       -1.82461
H          0.54250        5.34350       -1.71009
H          1.37476        4.39204       -2.88073
H          0.68374        3.38990        0.57631
H          2.14912        4.09776        1.37475
H          0.94203        5.16710        0.62781
Na         4.15182        2.42389       -3.06746
Mg         7.39762        1.68665       -4.60283
H          9.57233        2.30082       -3.05767
C          8.37194        4.09880       -2.71228
C          8.89207        2.96799       -3.62454
C          7.40512        3.62255       -1.62497
H          9.22660        4.64083       -2.24733
H          7.83304        4.84264       -3.33097
H          7.01253        4.51558       -1.08842
H          6.54571        3.09794       -2.09486
C          8.07662        2.71886       -0.59748
H          9.50148        3.45536       -4.41659
H          8.45206        1.79050       -1.07260
H          8.91775        3.25488       -0.10808
H          7.33922        2.44350        0.18157
C          1.25775        1.65939       -5.15385
C          1.20557        0.60270       -6.05902
C          2.48699        0.12775       -6.17643
C          3.26793        0.91549       -5.35348
N          2.51681        1.85902       -4.72750
C          4.77624        0.77390       -5.31395
N          5.46181        2.03231       -5.00330
C          5.48059        3.07561       -6.08578
H          0.32441        0.23152       -6.56793
H          0.40584        2.25074       -4.86591
H          2.81054       -0.67196       -6.82393
H          5.14289        0.34157       -6.26730
H          5.02182        0.03218       -4.52635
C          4.08805        3.55026       -6.44631
C          6.28555        4.26182       -5.54453
C          6.14198        2.63763       -7.40604
H          3.61797        3.77354       -5.50411
H          4.11817        4.44133       -7.10396
H          3.49232        2.79215       -6.98600
H          7.34440        3.97214       -5.43126
H          6.26159        5.13130       -6.23750
H          5.90209        4.55962       -4.55056
H          7.20490        2.41368       -7.25724
H          5.61510        1.78253       -7.87566
H          6.10781        3.47503       -8.14016
