110
speciation1999.ct
Na         0.24546       -1.09188        3.09031
Mg         0.74198        5.24944        2.74420
C          1.89721       -1.87144        5.37185
C         -0.03223       -1.70780        6.54317
O          0.51170       -1.93016        5.24479
C          2.60096       -3.18054        5.69586
C         -1.52677       -1.69947        6.51077
H          2.16952       -1.54871        4.39234
H          2.24883       -1.12354        6.10574
H          0.26200       -2.55355        7.21640
H          0.31040       -0.75000        7.00607
H         -1.87029       -2.66714        6.09691
H         -1.91594       -1.59617        7.54534
H         -1.85743       -0.83723        5.89688
H          2.30063       -3.97181        4.98693
H          3.70126       -3.02797        5.61133
H          2.40012       -3.47444        6.74539
H          1.76821        6.99747        1.04560
C          2.52063        7.97247        2.83740
C          1.44712        7.15980        2.09345
C          3.89482        7.29003        2.92783
H          2.65096        8.94967        2.32010
H          2.16101        8.18649        3.86579
H          4.57061        7.96148        3.50450
H          3.81112        6.32911        3.47690
C          4.53777        7.05049        1.56024
H          0.52436        7.77651        2.05961
H          3.94377        6.32970        0.96290
H          4.62855        8.00681        1.00147
H          5.55512        6.62666        1.69657
C         -0.43779        4.85325        0.07854
C         -0.94954        3.91420       -0.78634
C         -0.76605        2.70162       -0.18715
C         -0.10216        2.91996        0.98589
N          0.06541        4.26084        1.17196
C          0.29047        1.86274        1.97564
N          0.87878        0.62854        1.43383
C          2.08418        0.72395        0.52747
H         -1.42101        4.10441       -1.74533
H         -0.45243        5.92621       -0.07524
H         -1.07486        1.72537       -0.58157
H         -0.66962        1.48256        2.36967
H          0.90795        2.27274        2.80194
C          3.32253        1.25909        1.22618
C          2.34903       -0.70044        0.03262
C          1.94505        1.64180       -0.70912
H          3.62477        0.52767        1.94160
H          4.19824        1.34806        0.55361
H          3.13385        2.25882        1.68138
H          1.48142       -1.04670       -0.56646
H          3.26676       -0.74687       -0.58777
H          2.46682       -1.38590        0.90105
H          1.10706        1.34583       -1.35841
H          1.89257        2.71610       -0.42548
H          2.86769        1.58528       -1.32670
Na        -1.16916        7.66731        7.80059
Mg         1.49418        3.17029        5.06546
C         -1.18196       -2.81140        1.04723
C         -2.46262       -2.62727        3.04739
O         -1.17876       -2.53911        2.44424
C         -2.20298       -2.01367        0.21724
C         -2.93814       -4.07902        3.20043
H         -0.17413       -2.55131        0.66639
H         -1.29623       -3.90156        0.86530
H         -2.40515       -2.18419        4.04777
H         -3.21972       -2.00161        2.54117
H         -2.25359       -4.64548        3.86652
H         -3.95726       -4.09454        3.64227
H         -2.99403       -4.59502        2.21972
H         -2.07594       -0.92561        0.39574
H         -2.05514       -2.22919       -0.86016
H         -3.24808       -2.31409        0.44435
H          3.43169        1.91026        6.14524
C          3.24106        0.83994        4.27271
C          2.61771        1.52337        5.49783
C          4.35720       -0.26539        4.47128
H          2.36238        0.45248        3.72083
H          3.71861        1.66643        3.72194
H          5.33884        0.22931        4.60188
H          4.20050       -0.79167        5.41971
C          4.51430       -1.37075        3.35387
H          1.94291        0.90263        6.10329
H          3.60551       -1.95052        3.08821
H          4.89932       -1.01569        2.38463
H          5.22866       -2.14615        3.69669
C          0.63096        5.51042        9.09905
C          1.57053        4.52999        8.86449
C          1.82040        4.54778        7.50210
C          1.02098        5.53063        6.96687
N          0.30335        6.12768        7.94627
C          0.91467        5.88104        5.49589
N          0.39818        4.77684        4.64370
C         -1.03216        4.36380        4.98180
H          2.01135        3.87023        9.60099
H          0.19490        5.74832       10.06250
H          2.50273        3.89948        6.97804
H          1.92998        6.15142        5.15476
H          0.28254        6.78289        5.36770
C         -2.03935        5.52188        4.82281
C         -1.48338        3.25434        4.05127
C         -1.20253        3.71924        6.39305
H         -1.98897        5.94247        3.79666
H         -3.07655        5.15562        4.99860
H         -1.86255        6.32420        5.56462
H         -0.84091        2.37405        4.24555
H         -2.52720        2.92732        4.25981
H         -1.48305        3.60686        3.01199
H         -0.45465        2.91112        6.55557
H         -1.18110        4.43140        7.22191
H         -2.21103        3.26048        6.50461
