83
speciation542.ct
Na         1.26664        0.16304        0.26409
Mg         1.19220       -1.55198       -3.40656
C         -1.03316        2.21408        0.00931
C          0.99370        3.44676       -0.16063
O          0.37457        2.21067        0.21866
C         -1.49095        2.74091       -1.36203
C          0.59916        4.62955        0.74584
H         -1.36422        1.16014        0.08200
H         -1.55049        2.76071        0.82717
H          2.07890        3.34176       -0.10521
H          0.82217        3.69978       -1.22689
H          0.92554        4.45130        1.79090
H          1.08098        5.56356        0.38098
H         -0.49597        4.81051        0.73767
H         -0.88984        2.25732       -2.15034
H         -2.57052        2.53536       -1.51316
H         -1.35606        3.83992       -1.45411
C          0.33590       -3.00946        0.75777
C         -0.43230       -4.08699        0.32477
C         -1.08475       -3.66395       -0.80499
C         -0.68580       -2.35510       -1.00291
N          0.19028       -1.92665       -0.05224
C         -1.21228       -1.49916       -2.08779
N         -0.72519       -1.91033       -3.42755
C         -1.27764       -1.07227       -4.52370
H         -0.52927       -5.06314        0.77933
H          0.97139       -3.04218        1.63412
H         -1.79259       -4.23179       -1.40331
H         -2.31715       -1.53322       -2.02624
H         -0.86214       -0.47692       -1.86271
C         -1.06399        0.43358       -4.27652
C         -0.53125       -1.42988       -5.81936
C         -2.78422       -1.35255       -4.72302
H          0.00693        0.65093       -4.07231
H         -1.39058        1.04242       -5.14796
H         -1.69181        0.76374       -3.43202
H         -0.69306       -2.49286       -6.08482
H         -0.89272       -0.80486       -6.66556
H          0.55866       -1.25139       -5.70075
H         -2.96145       -2.43934       -4.85949
H         -3.38261       -1.00765       -3.85512
H         -3.17522       -0.81166       -5.61280
Na        -1.04842       -3.98498       -4.16230
C         -1.50636       -6.87263       -3.97310
C         -0.47487       -6.42901       -6.02724
O         -1.30319       -5.91325       -4.99888
C         -0.23761       -7.16238       -3.16355
C         -0.43733       -5.47645       -7.21089
H         -2.27126       -6.45939       -3.28595
H         -1.94467       -7.81608       -4.37586
H          0.57193       -6.58583       -5.68307
H         -0.89035       -7.39012       -6.41542
H          0.02963       -4.51969       -6.90769
H          0.17040       -5.92003       -8.02952
H         -1.46445       -5.29090       -7.59118
H          0.20020       -6.21200       -2.79490
H         -0.48796       -7.80978       -2.29747
H          0.51548       -7.70455       -3.77271
C          4.08094       -1.17127        0.96876
C          5.38548       -1.03358        1.42321
C          5.57721        0.29994        1.65745
C          4.38234        0.92067        1.35787
N          3.45396        0.02252        0.92640
C          4.16580        2.38164        1.56058
N          3.03262        2.64174        2.46569
C          3.17663        2.29397        3.90454
H          6.11619       -1.81600        1.58153
H          3.61996       -2.11229        0.71492
H          6.47767        0.77372        2.03720
H          5.08316        2.89063        1.91964
H          3.97000        2.82376        0.57185
C          4.39521        2.98928        4.55036
C          1.90159        2.78498        4.60712
C          3.26137        0.76958        4.13639
H          4.32175        4.09231        4.44016
H          4.44966        2.74709        5.63392
H          5.34898        2.64854        4.09760
H          1.00533        2.31363        4.14796
H          1.91999        2.52059        5.68751
H          1.80185        3.88733        4.51846
H          2.42558        0.24992        3.62018
H          4.22232        0.34683        3.80500
H          3.21033        0.53395        5.21978
