110
speciation2653.ct
Na         0.71204        1.12143       -0.22894
Mg         3.29767       -0.05068       -1.74746
C          1.80313       -2.09880       -3.28926
C          2.49092       -0.30241       -4.66506
O          2.14303       -0.71638       -3.33087
C          2.87437       -3.04245       -3.85063
C          1.37508       -0.53622       -5.73110
H          1.63229       -2.35595       -2.24354
H          0.81804       -2.30166       -3.76426
H          2.66237        0.79028       -4.62798
H          3.44877       -0.73947       -5.02487
H          1.31792        0.32129       -6.43378
H          1.59490       -1.43350       -6.34161
H          0.36616       -0.65804       -5.27946
H          3.86584       -2.77880       -3.45346
H          2.63283       -4.08984       -3.57624
H          2.92609       -2.98281       -4.95574
H          6.67122       -1.30936       -6.01387
C          7.51498       -2.44187       -7.65407
C          7.65413       -1.70614       -6.33402
C          6.52749       -3.58143       -7.50091
H          7.14319       -1.72858       -8.42227
H          8.50977       -2.82605       -7.97467
H          6.94610       -4.25738       -6.74812
H          5.54826       -3.19969       -7.13746
C          6.31534       -4.31796       -8.81620
H          8.27639       -0.83605       -6.56003
H          5.83005       -3.64324       -9.55385
H          7.28440       -4.67310       -9.22615
H          5.65533       -5.19302       -8.64259
C         -1.86883       -0.66885       -0.13931
C         -1.97626       -2.01853        0.14681
C         -0.69535       -2.47642        0.39736
C          0.13737       -1.39029        0.25279
N         -0.57915       -0.30497       -0.07061
C          1.64665       -1.41238        0.42705
N          2.32416       -0.11317        0.14290
C          2.97318        0.48166        1.36724
H         -2.88600       -2.60079        0.16564
H         -2.67975        0.00479       -0.38567
H         -0.40615       -3.48453        0.65359
H          2.02719       -2.16574       -0.24105
H          1.86436       -1.80980        1.43630
C          4.17160       -0.36873        1.84029
C          3.52329        1.89191        1.08091
C          1.93996        0.66038        2.51793
H          4.93373       -0.43534        1.03620
H          4.64842        0.10130        2.72965
H          3.87958       -1.39373        2.13561
H          2.71220        2.59728        0.83991
H          4.01551        2.31376        1.98527
H          4.28705        1.87388        0.28408
H          1.08733        1.28601        2.17348
H          1.52772       -0.29266        2.89749
H          2.40183        1.17033        3.39111
Na         9.93411       -2.09559       -1.88143
Mg         8.50059       -2.60587       -4.60799
C          2.26773        3.02385       -1.79306
C          4.40348        2.71069       -2.58152
O          3.33779        2.06744       -1.93045
C          1.39342        3.17654       -3.03196
C          5.64509        1.94863       -2.26454
H          1.61988        2.80612       -0.94469
H          2.64824        4.02968       -1.49992
H          4.60854        3.74956       -2.17788
H          4.21470        2.83989       -3.66929
H          6.05236        1.68320       -3.23404
H          6.32289        2.55077       -1.63099
H          5.39136        1.02780       -1.69718
H          0.84174        2.23409       -3.21497
H          0.65952        3.99775       -2.84959
H          1.99425        3.45372       -3.92013
H          8.76492       -5.20282       -5.61123
C          7.93881       -5.76849       -3.67207
C          8.79220       -4.84117       -4.56343
C          6.44820       -5.71578       -4.01917
H          8.29637       -6.82440       -3.72435
H          8.07566       -5.44347       -2.62339
H          5.85877       -6.17477       -3.19489
H          6.14684       -4.65051       -4.10784
C          6.10704       -6.50487       -5.28679
H          9.84476       -4.96166       -4.22517
H          6.74958       -6.24248       -6.14192
H          6.24586       -7.59141       -5.10920
H          5.04681       -6.31942       -5.56004
C          4.74730       -2.72785       -1.07323
C          5.79639       -3.62778       -1.06867
C          6.85864       -2.97605       -1.60233
C          6.43807       -1.71359       -1.93936
N          5.09424       -1.51328       -1.58566
C          7.27274       -0.69828       -2.58841
N          8.57420       -1.08120       -3.23386
C          9.34278        0.12574       -3.69147
H          5.77435       -4.66688       -0.72186
H          3.78405       -3.01222       -0.73366
H          7.85451       -3.38009       -1.75479
H          6.57489       -0.41934       -3.37969
H          7.44209        0.10254       -1.83804
C         10.13777        0.70279       -2.49427
C         10.40791       -0.17121       -4.79785
C          8.38155        1.20867       -4.28462
H         10.90972       -0.02278       -2.15339
H         10.66410        1.64258       -2.76714
H          9.48432        0.92804       -1.62964
H         10.94329       -1.11770       -4.64618
H         10.01039       -0.11927       -5.81934
H         11.15974        0.65691       -4.82747
H          7.52332        0.70443       -4.74691
H          8.08448        1.91587       -3.48413
H          8.68664        1.76412       -5.19185
