57
speciation540.ct
Na         0.93457        0.06059        0.04525
C         -1.95741       -1.22204       -0.10617
C         -1.96626        0.95345       -0.88299
O         -1.38543        0.06059        0.04525
C         -1.32276       -2.18643        0.88239
C         -1.34431        2.33303       -0.73188
H         -3.04454       -1.18096        0.13648
H         -1.80984       -1.61659       -1.13689
H         -1.82052        0.60719       -1.93113
H         -3.05370        1.06583       -0.66514
H         -0.26442        2.29489       -0.98387
H         -1.84965        3.04431       -1.42014
H         -1.46768        2.69733        0.31026
H         -1.44858       -1.81183        1.92037
H         -1.81140       -3.18092        0.79862
H         -0.24268       -2.29471        0.66103
C          1.85543       -4.21560        0.79713
C          2.37640       -3.74818        1.98232
C          3.10553       -2.60595        1.69494
C          3.03768       -2.38644        0.38458
N          2.24799       -3.36736       -0.25792
C          3.74091       -1.28981       -0.37098
N          3.30457        0.06059        0.04525
C          3.85032        1.16344       -0.79105
H          2.24251       -4.21010        2.95147
H          1.24221       -5.09516        0.67622
H          3.65560       -2.01204        2.40175
H          3.50059       -1.46566       -1.43634
H          4.83023       -1.41549       -0.21271
C          3.38562        1.06187       -2.26292
C          3.32939        2.48939       -0.21448
C          5.39659        1.19522       -0.74072
H          2.27723        1.03320       -2.32091
H          3.74774        1.93808       -2.84323
H          3.79667        0.16860       -2.77462
H          3.66265        2.61723        0.83736
H          3.71342        3.35128       -0.80450
H          2.21997        2.51596       -0.23856
H          5.75295        1.28110        0.30794
H          5.84455        0.28550       -1.19227
H          5.78964        2.06127       -1.31542
Na         4.09456        0.58887        2.21637
C          5.26191        2.46502        4.41543
C          5.83671        0.23742        4.90006
O          4.86789        1.10600        4.34168
C          6.49843        2.80711        3.57014
C          5.37139       -1.20220        4.76270
H          4.41474        3.07092        4.02889
H          5.40435        2.78050        5.47247
H          6.81752        0.30327        4.38734
H          5.94706        0.44943        5.98677
H          5.33473       -1.47089        3.69030
H          6.09312       -1.88225        5.26248
H          4.36898       -1.33505        5.22231
H          6.34953        2.47951        2.52071
H          6.66293        3.90477        3.58741
H          7.41939        2.33827        3.97617
