110
speciation1922.ct
Na         1.15631        1.90436        0.32063
Mg         6.96910       -4.56717       -2.35033
C          1.33465        2.53007        3.69731
C          0.01665        3.93423        2.43494
O          1.06883        2.99367        2.36427
C          0.21857        1.65645        4.33674
C         -0.26233        4.49176        1.06950
H          2.29307        1.99125        3.68229
H          1.57741        3.36677        4.39158
H         -0.92399        3.46220        2.79390
H          0.30368        4.79306        3.08432
H         -0.59870        3.66271        0.42063
H         -1.07274        5.24533        1.13306
H          0.65721        4.96516        0.67828
H         -0.20640        0.90018        3.64818
H          0.62615        1.11715        5.22004
H         -0.62982        2.27762        4.68857
H          7.74025       -2.66281       -0.67454
C          8.90071       -4.14166        0.31394
C          7.64340       -3.74311       -0.46283
C         10.17722       -3.94125       -0.50861
H          8.95892       -3.49712        1.22386
H          8.82059       -5.19877        0.63928
H         10.14252       -4.60161       -1.40143
H         10.25400       -2.88371       -0.84515
C         11.41898       -4.27534        0.31852
H          6.77043       -3.87284        0.21111
H         11.49777       -3.59385        1.19399
H         11.37506       -5.32431        0.68061
H         12.33056       -4.15168       -0.30395
C         -1.85991        0.99072        0.05619
C         -2.42180       -0.22648       -0.18209
C         -1.39788       -1.13967       -0.32303
C         -0.22747       -0.42837       -0.15594
N         -0.50334        0.85897        0.09363
C          1.18446       -0.98837       -0.25632
N          2.24500        0.03300       -0.00400
C          2.99375       -0.13976        1.26662
H         -3.48887       -0.44736       -0.27116
H         -2.38768        1.92925        0.19150
H         -1.48715       -2.20198       -0.51978
H          1.32313       -1.39771       -1.27182
H          1.26511       -1.86190        0.43010
C          3.87084       -1.40500        1.32609
C          3.90363        1.09502        1.42013
C          2.00588       -0.22589        2.42620
H          4.60933       -1.43196        0.50331
H          4.42208       -1.41770        2.29645
H          3.25952       -2.33059        1.30478
H          3.31885        2.03680        1.37619
H          4.45393        1.07441        2.38547
H          4.64963        1.12276        0.59659
H          1.28283        0.56472        2.23516
H          1.41257       -1.15879        2.45482
H          2.51527       -0.15389        3.41059
Na         3.88685       -2.64115       -1.77645
Mg         3.38218        0.08335       -1.63630
C          2.90946        3.18544       -1.69770
C          0.66730        3.93764       -2.02126
O          1.52604        2.93513       -1.49721
C          3.44152        4.45076       -1.03982
C          0.70830        4.04702       -3.54965
H          3.46035        2.31887       -1.27931
H          3.16519        3.19827       -2.76839
H         -0.37297        3.64303       -1.77835
H          0.85358        4.92640       -1.56135
H          0.45200        3.07331       -4.01728
H         -0.03316        4.80698       -3.87669
H          1.70049        4.38334       -3.91211
H          3.19547        4.45096        0.03977
H          4.54507        4.48037       -1.16841
H          3.02914        5.35290       -1.53549
H          8.48623       -6.95688       -1.89192
C          7.71421       -7.44123       -3.85389
C          7.52213       -6.83730       -2.43626
C          8.10179       -8.93756       -3.93495
H          6.76372       -7.32008       -4.41054
H          8.51399       -6.85635       -4.35605
H          9.05300       -9.14701       -3.39454
H          7.30617       -9.58116       -3.49459
C          8.29541       -9.35863       -5.40816
H          6.75945       -7.43203       -1.88705
H          7.36365       -9.18184       -5.98724
H          9.11621       -8.76924       -5.87076
H          8.55595      -10.43579       -5.49610
C          4.27637        1.02872       -4.25174
C          5.21115        0.91022       -5.25237
C          6.06514       -0.07815       -4.90125
C          5.61414       -0.58753       -3.69538
N          4.51935        0.13370       -3.26860
C          6.31509       -1.77776       -3.03474
N          5.57750       -3.07967       -3.01096
C          4.99119       -3.63137       -4.27919
H          5.25173        1.51864       -6.16295
H          3.45995        1.72544       -4.25321
H          6.89706       -0.44367       -5.47876
H          7.28063       -1.95265       -3.55180
H          6.54708       -1.46494       -2.00304
C          6.08718       -4.14996       -5.24656
C          4.10085       -4.80799       -3.84409
C          4.07353       -2.64395       -5.05000
H          5.68861       -4.23228       -6.28031
H          6.44498       -5.15421       -4.96584
H          6.95174       -3.46135       -5.28294
H          3.27210       -4.44737       -3.19837
H          3.65876       -5.33034       -4.72017
H          4.69300       -5.54815       -3.25998
H          3.49158       -1.98475       -4.37532
H          4.63991       -2.05029       -5.79652
H          3.31795       -3.19702       -5.65114
