110
speciation2162.ct
Na         6.39114        1.35056       -6.22585
Mg         5.76693        2.75212       -0.02978
C          5.87623        2.29081       -9.17834
C          7.28707        0.40814       -9.14662
O          6.89076        1.59172       -8.47855
C          4.53957        1.53724       -9.28975
C          8.36411       -0.30673       -8.34450
H          5.68632        3.23113       -8.62114
H          6.23374        2.59936      -10.18572
H          6.44935       -0.30971       -9.26374
H          7.72147        0.66420      -10.13885
H          7.95524       -0.63838       -7.36658
H          8.70783       -1.20234       -8.90619
H          9.23107        0.36451       -8.17376
H          4.17932        1.24302       -8.28095
H          3.78460        2.20449       -9.75386
H          4.62071        0.64262       -9.93247
H          4.76617        2.17534        2.61008
C          6.63868        2.11725        3.62902
C          5.78707        1.89584        2.29836
C          8.16672        1.81723        3.58130
H          6.22555        1.48035        4.43774
H          6.53310        3.17345        3.96024
H          8.34610        0.73914        3.35204
H          8.62586        2.43787        2.78426
C          8.91870        2.14588        4.89822
H          5.79505        0.80187        2.12171
H          8.44357        1.32273        5.45720
H          8.91795        2.05363        6.00384
H         10.00966        2.01111        4.69235
C          2.80244        2.38495       -1.13337
C          1.93170        2.36012       -2.19498
C          2.68802        2.34609       -3.34097
C          4.02365        2.35680       -2.88399
N          4.09947        2.40304       -1.52805
C          5.08276        2.35923       -3.93734
N          5.88075        1.10421       -3.92461
C          5.19158       -0.21507       -4.27171
H          0.84147        2.32699       -2.23461
H          2.45372        2.43202       -0.10234
H          2.35821        2.35784       -4.35523
H          5.71689        3.22931       -3.86330
H          4.63189        2.42497       -4.95247
C          4.61432       -0.30825       -5.71618
C          6.20512       -1.37263       -4.19163
C          4.04078       -0.46001       -3.22170
H          5.40055       -0.37078       -6.51498
H          3.91443        0.51650       -5.96010
H          4.06729       -1.26789       -5.86779
H          6.57726       -1.56501       -3.17552
H          5.75731       -2.33497       -4.54040
H          7.07068       -1.16214       -4.86734
H          3.70673       -1.43855       -2.82276
H          3.12169        0.00375       -3.63132
H          4.43655       -0.03059       -2.30081
Na         9.54104        7.42459        0.46266
Mg         4.15472        5.20927        1.34990
C          8.37816        1.08902        0.08033
C          7.98352        2.20209       -1.96723
O          7.51058        1.94626       -0.66411
C          9.80496        1.64332        0.21273
C          8.41073        0.93378       -2.74925
H          7.96110        0.94845        1.09172
H          8.39174        0.05715       -0.33264
H          7.13655        2.64698       -2.47628
H          8.76978        2.97209       -1.98294
H          7.64966        0.15655       -2.59792
H          8.52344        1.15909       -3.83516
H          9.37232        0.50314       -2.39848
H          9.78000        2.64535        0.68295
H         10.43546        0.95719        0.81463
H         10.30119        1.74033       -0.77556
H          2.97483        5.48967        3.63447
C          1.28630        4.71619        2.54019
C          2.57263        5.52078        2.59952
C          1.53732        3.24358        2.85287
H          0.58716        5.13998        3.29275
H          0.82857        4.81758        1.53111
H          2.19452        2.80618        2.07807
H          2.04304        3.14356        3.84011
C          0.21781        2.47953        2.90706
H          2.32720        6.57975        2.37212
H         -0.42227        2.88770        3.71929
H         -0.32259        2.56863        1.94050
H          0.41311        1.40715        3.11532
C          7.51305        8.24927        2.65667
C          6.36411        7.88682        3.31304
C          5.98505        6.67838        2.77656
C          6.91212        6.34877        1.81518
N          7.85673        7.31164        1.74439
C          6.90493        5.09140        0.97925
N          5.69803        4.90539        0.13091
C          5.52450        5.93710       -0.95803
H          5.85204        8.42504        4.09695
H          8.09440        9.15132        2.84410
H          5.11730        6.10462        3.05551
H          6.95920        4.24451        1.68947
H          7.83188        5.01647        0.36373
C          6.75809        6.03863       -1.88036
C          4.31009        5.57467       -1.81531
C          5.19112        7.34912       -0.39784
H          6.98823        5.05287       -2.33232
H          6.57101        6.76581       -2.69953
H          7.64989        6.40547       -1.33161
H          3.39274        5.46929       -1.19607
H          4.12028        6.34787       -2.59322
H          4.51477        4.66102       -2.35937
H          4.31065        7.30945        0.27998
H          6.02900        7.83849        0.11541
H          4.95059        8.05317       -1.22467
