68
speciation1220.ct
Na         0.90127        0.01238        0.00992
C         -1.85314       -0.73463        1.14406
C         -1.86001       -0.54464       -1.22687
O         -1.41873        0.01238        0.00992
C         -1.52422       -2.23818        1.12309
C         -3.38034       -0.46218       -1.44888
H         -1.34081       -0.29900        2.02550
H         -2.93768       -0.58091        1.32846
H         -1.39154        0.02993       -2.05229
H         -1.50678       -1.58645       -1.35366
H         -3.71705        0.59292       -1.53159
H         -3.63564       -0.98225       -2.39787
H         -3.95039       -0.96568       -0.64271
H         -0.45109       -2.39909        0.90742
H         -1.75787       -2.68145        2.11382
H         -2.13669       -2.78452        0.37496
C         -0.84074        3.28241       -7.51232
C         -1.42542        2.06447       -7.89128
C         -1.14457        0.96395       -7.00809
C         -0.34958        1.42950       -5.95672
N         -0.12211        3.11884       -6.41886
C          1.60919        0.63529       -2.62874
N          3.27127        0.01238        0.00992
C          3.70402       -1.37504        0.14559
H         -2.02511        2.03327       -8.79364
H         -0.91633        4.24713       -8.00978
H         -1.50764       -0.03821       -7.17490
H          2.22056        1.43820       -2.90607
H          0.76334        1.09162       -2.08003
C          4.66428       -1.74448       -0.99083
C          4.43664       -1.49936        1.49597
C          2.48605       -2.30199        0.14840
H          5.54989       -1.07266       -0.98389
H          5.02060       -2.79109       -0.86742
H          4.15771       -1.65542       -1.97417
H          3.76247       -1.21476        2.33407
H          4.78878       -2.53892        1.66891
H          5.31771       -0.82121        1.52682
H          1.81215       -2.02792        0.98696
H          1.92820       -2.21780       -0.80754
H          2.79985       -3.35882        0.29108
Na         1.26258        3.32519       -4.50654
Mg         3.93459        0.69808       -1.73648
C          5.08529        0.66718       -4.51441
C          5.34110        1.49464       -5.59077
C          4.98471        2.76501       -5.19923
C          4.52782        2.65012       -3.90237
N          4.59792        1.38379       -3.48288
C          4.03848        3.75419       -3.05172
N          2.64727        3.53154       -2.59422
C          2.15586        4.66263       -1.75571
H          5.73065        1.20499       -6.55733
H          5.23195       -0.40396       -4.49362
H          5.04328        3.66892       -5.79184
H          4.73583        3.79467       -2.19339
H          4.12402        4.67665       -3.65496
C          2.17220        6.00919       -2.52681
C          0.70364        4.36233       -1.36320
C          2.98522        4.80651       -0.45459
H          1.59471        5.92347       -3.47184
H          1.72797        6.81948       -1.91074
H          3.19913        6.35281       -2.76631
H          0.64417        3.41758       -0.78320
H          0.29446        5.18490       -0.73451
H          0.06847        4.26699       -2.26895
H          2.98595        3.85137        0.11273
H          4.03593        5.10105       -0.65286
H          2.56406        5.60465        0.19312
