81
speciation803.ct
Na         0.70717       -0.11668       -0.47940
Mg         3.80292        0.25274       -1.28201
C          5.87882        2.37217       -2.57024
C          6.39343        1.90441       -0.41236
O          5.32865        1.82859       -1.35428
C          6.88200        1.44002       -3.29250
C          5.97131        1.47039        0.93672
H          5.05892        2.71677       -3.20865
H          6.36876        3.36267       -2.41858
H          7.24272        1.24598       -0.69551
H          6.73656        2.95988       -0.28853
H          5.69616        0.40431        0.82410
H          6.81280        1.57020        1.64952
H          5.15756        2.13106        1.29300
H          6.52204        0.39245       -3.34516
H          7.06754        1.81287       -4.32358
H          7.86177        1.42003       -2.77663
H         -1.73962        0.45864       -2.68865
C         -1.93099        0.72099       -0.58133
C         -1.36400       -0.05255       -1.77936
C         -1.43113        2.17723       -0.51499
H         -3.04165        0.70495       -0.59566
H         -1.63919        0.19907        0.34158
H         -1.72823        2.60331        0.46756
H         -0.33293        2.20143       -0.58546
C         -1.98446        3.08671       -1.60304
H         -1.77567       -1.07585       -1.84796
H         -1.65525        2.75675       -2.60842
H         -3.09187        3.10795       -1.54945
H         -1.59988        4.11641       -1.43429
C         -1.23547       -2.53695        0.31170
C         -0.88238       -3.73575        0.87436
C          0.48426       -3.67349        1.10363
C          0.90479       -2.42031        0.67999
N         -0.14477       -1.76431        0.17609
C          2.33987       -1.81930        0.73982
N          2.52232       -0.36538        0.34292
C          2.29463        0.70495        1.34083
H         -1.55002       -4.56495        1.08229
H         -2.24072       -2.26281       -0.00037
H          1.08563       -4.46129        1.53133
H          2.95423       -2.45243        0.06644
H          2.72904       -1.98061        1.75941
C          3.24043        0.56115        2.53577
C          2.49957        2.00888        0.54845
C          0.87960        0.75083        1.95048
H          4.24942        0.30803        2.25238
H          3.23244        1.49185        3.14101
H          2.92494       -0.27968        3.18458
H          1.76335        2.07387       -0.27216
H          2.41595        2.91723        1.17413
H          3.45567        2.00638        0.02325
H          0.11522        0.97001        1.21488
H          0.61743       -0.19168        2.47155
H          0.80812        1.59116        2.67473
Mg         0.60447        0.02465       -2.30923
C          5.65063       -2.11913       -1.26591
C          5.65576       -3.24236       -2.06291
C          4.61599       -3.10303       -2.96006
C          4.02148       -1.89200       -2.68088
N          4.66998       -1.30150       -1.66228
C          2.81920       -1.26621       -3.36133
N          2.52469        0.09997       -2.82612
C          2.50690        1.17034       -3.86911
H          6.33106       -4.08626       -1.96899
H          6.30956       -1.90896       -0.43101
H          4.32775       -3.80965       -3.72883
H          1.93909       -1.91844       -3.20878
H          3.02353       -1.26903       -4.44696
C          1.36175        1.00305       -4.89047
C          2.28016        2.50737       -3.13736
C          3.80602        1.17717       -4.68878
H          0.37132        0.97480       -4.39764
H          1.37669        1.85645       -5.60838
H          1.48666        0.07778       -5.49149
H          3.02464        2.67434       -2.33845
H          2.31876        3.36508       -3.84387
H          1.27659        2.51002       -2.65811
H          4.59404        0.85860       -4.02765
H          3.84263        0.41311       -5.48785
H          3.99205        2.15899       -5.17744
