68
speciation35.ct
Na         1.32665        1.72556        0.25825
Mg         3.24840       -0.40709       -1.57461
C         -0.22564        2.84057        2.86169
C          2.11175        3.32144        2.99544
O          1.07687        2.62141        2.30254
C         -0.65799        4.31068        2.96906
C          2.26067        2.95915        4.49098
H         -0.95936        2.31507        2.21346
H         -0.31485        2.33960        3.84874
H          3.07672        3.07047        2.52702
H          1.99616        4.41533        2.86726
H          2.51430        1.88791        4.62944
H          3.08286        3.56406        4.93150
H          1.34953        3.19193        5.07981
H         -0.63822        4.81516        1.98860
H         -1.69781        4.36704        3.35232
H         -0.02100        4.87638        3.68023
C         -1.66266        0.84040       -0.30703
C         -2.25294       -0.39806       -0.46376
C         -1.24620       -1.33923       -0.35417
C         -0.07993       -0.63290       -0.13744
N         -0.34434        0.68738       -0.10988
C          1.29957       -1.23892        0.06258
N          2.35588       -0.19896        0.15351
C          3.38442       -0.38087        1.19756
H         -3.30400       -0.59347       -0.62843
H         -2.16654        1.79646       -0.32043
H         -1.35333       -2.41424       -0.42001
H          1.53472       -1.88350       -0.81227
H          1.25661       -1.89940        0.94756
C          4.14310       -1.71932        1.05893
C          4.39478        0.76190        1.02632
C          2.73981       -0.31055        2.59450
H          4.64175       -1.79460        0.06983
H          4.92441       -1.79470        1.84853
H          3.46696       -2.59041        1.17920
H          3.87895        1.73898        1.02584
H          5.15664        0.74960        1.83500
H          4.91702        0.67080        0.04995
H          2.11560        0.58402        2.67467
H          2.08235       -1.17838        2.79948
H          3.51049       -0.28438        3.39168
Na         5.12538        2.50149       -1.63018
C          4.75347        3.45574       -4.59638
C          3.81506        3.57575       -5.60105
C          2.63080        3.08366       -5.09447
C          2.89761        2.70018       -3.79268
N          4.19422        2.91885       -3.49814
C          1.92177        2.15064       -2.79536
N          1.86840        2.98169       -1.56982
C          1.20369        4.30893       -1.70091
H          3.98019        3.98875       -6.58693
H          5.79190        3.75667       -4.65780
H          1.67921        3.03863       -5.61080
H          2.27692        1.14119       -2.51618
H          0.91571        2.00439       -3.24170
C         -0.21560        4.21588       -2.30981
C          1.09808        4.85942       -0.28780
C          2.04173        5.31553       -2.52467
H         -0.85646        3.51924       -1.73085
H         -0.70021        5.21869       -2.31168
H         -0.19010        3.88886       -3.37052
H          2.10667        4.96593        0.16534
H          0.59183        5.85150       -0.27405
H          0.51384        4.14156        0.31006
H          3.08290        5.36792       -2.14243
H          2.06091        5.07521       -3.59971
H          1.59542        6.33248       -2.47107
