53
speciation835.ct
Na         1.16273        0.12886       -0.16223
C          2.34302       -0.43845        4.59744
C          1.82245        0.68129        3.98367
C          2.21726        0.65367        2.65874
C          2.95175       -0.44453        2.46780
N          3.07578       -1.18455        3.66385
C          3.58312       -0.90610        1.18768
N          3.28656       -0.01209        0.05377
C          3.80387       -0.48726       -1.26218
H          1.21851        1.43535        4.46901
H          2.21791       -0.70957        5.63643
H          1.97038        1.39433        1.91002
H          3.17898       -1.91847        1.00032
H          4.67644       -0.96335        1.36196
C          3.16520       -1.83429       -1.67311
C          3.41316        0.54703       -2.32868
C          5.34316       -0.62218       -1.26849
H          2.05722       -1.75483       -1.67717
H          3.49593       -2.12311       -2.69490
H          3.46611       -2.66326       -1.00316
H          3.90582        1.50826       -2.11974
H          3.74384        0.22477       -3.34042
H          2.31296        0.70064       -2.35273
H          5.82327        0.34043       -0.99949
H          5.69350       -1.40178       -0.56351
H          5.69932       -0.91740       -2.28031
Na         3.04255        4.71003        1.87499
Mg         3.94989        1.81681        0.47237
C          4.44589        2.24990        5.02155
C          5.39912        1.30481        4.71307
C          5.95431        1.66379        3.49986
C          5.36218        2.78246        3.08094
N          4.37870        3.21225        3.99834
C          5.74082        3.53011        1.83566
N          4.61321        3.64570        0.89098
C          4.93715        4.38759       -0.36092
H          5.66766        0.45141        5.32163
H          3.83696        2.25516        5.91550
H          6.75428        1.14059        2.98895
H          6.58483        2.99056        1.36417
H          6.08056        4.53036        2.16684
C          6.05713        3.68647       -1.16496
C          3.66382        4.43992       -1.22139
C          5.35682        5.84990       -0.07742
H          5.78769        2.63600       -1.37894
H          6.23208        4.20791       -2.13011
H          7.02638        3.70031       -0.62617
H          2.85582        4.99031       -0.69586
H          3.86201        4.95085       -2.19001
H          3.28106        3.42848       -1.43372
H          4.55296        6.38805        0.46877
H          6.29449        5.91487        0.50824
H          5.54504        6.38696       -1.03322
