83
speciation694.ct
Na         6.13161       -3.09873        5.73517
Mg         2.43900        1.77941        4.14638
C          4.07384        4.27920        4.26851
C          5.06316        2.93401        2.73938
O          4.18563        2.92845        3.86376
C          3.46950        4.25266        5.59988
C          5.35148        1.55239        2.18388
H          5.06053        4.78717        4.38823
H          3.41549        4.85477        3.57944
H          4.70093        3.60308        1.92877
H          6.06406        3.31442        3.05268
H          4.44897        1.05541        1.78994
H          6.08496        1.64496        1.35596
H          5.80422        0.93219        2.96923
H          4.08875        3.64818        6.30498
H          3.29526        5.26839        6.01275
H          2.53230        3.75214        5.33344
C          2.59177       -0.87369        2.71317
C          3.22498       -2.09105        2.67123
C          4.20937       -2.05582        3.61843
C          4.14229       -0.80208        4.20485
N          3.12502       -0.08457        3.66187
C          5.03262       -0.30547        5.31721
N          6.32794       -1.00758        5.30284
C          7.35707       -0.48834        6.22767
H          2.98064       -2.92819        2.01501
H          1.77112       -0.59821        2.07104
H          4.88666       -2.86468        3.85332
H          4.53023       -0.42567        6.29727
H          5.17131        0.77372        5.14238
C          6.92970       -0.66534        7.70159
C          8.63448       -1.31202        5.99288
C          7.66921        0.99871        5.94613
H          6.70969       -1.73313        7.91745
H          7.74092       -0.32965        8.38379
H          6.02867       -0.06481        7.93982
H          8.97378       -1.22103        4.93907
H          9.45781       -0.96836        6.65600
H          8.45010       -2.38790        6.20383
H          7.88650        1.14901        4.86696
H          6.82271        1.65545        6.23505
H          8.54797        1.33432        6.53665
Na         7.14539       -0.85598        3.33130
C         -0.29878        1.88109        3.20281
C          1.04069        2.43630        1.38333
O          1.01297        2.27687        2.80769
C         -0.73647        0.47947        2.73824
C          2.26391        3.16722        0.88353
H         -0.35150        1.92954        4.30456
H         -1.04993        2.62689        2.85440
H          0.98968        1.46386        0.84732
H          0.19416        3.08575        1.05942
H          3.12296        2.49650        0.95354
H          2.14922        3.40631       -0.19612
H          2.41739        4.10990        1.44616
H         -0.08198       -0.30698        3.12765
H         -1.75457        0.26559        3.12102
H         -0.77009        0.38897        1.63379
C         -2.16407        4.55356        7.08951
C         -2.10185        4.18190        8.41444
C         -0.93712        3.45937        8.58524
C         -0.30285        3.39084        7.40310
N         -1.04211        4.05225        6.39677
C          1.11551        2.86105        7.24785
N          1.43715        1.72862        6.28040
C          0.98973        0.39492        6.84710
H         -2.81132        4.44639        9.19067
H         -2.94621        5.16381        6.65700
H         -0.55107        3.08970        9.52752
H          1.54229        2.65099        8.23909
H          1.61747        3.79148        7.04482
C         -0.54220        0.29364        7.02058
C          1.36526       -0.74184        5.90968
C          1.68997        0.07418        8.19905
H         -1.06295        0.45419        6.05459
H         -0.81633       -0.71996        7.39152
H         -0.93361        0.98566        7.77891
H          2.44154       -0.88394        5.92583
H          0.94626       -1.71802        6.23777
H          0.99491       -0.53485        4.90308
H          2.79543        0.12751        8.08136
H          1.38844        0.74374        9.02536
H          1.43128       -0.95023        8.54380
