110
speciation1891.ct
Na         1.11024       -0.02726       -0.11825
Mg         1.56535        3.56766       -4.69670
C         -0.50132       -0.16073        2.50985
C          1.23870       -1.80771        2.44213
O          0.39487       -0.92745        1.70703
C          0.12194        0.55456        3.72224
C          0.47674       -2.99224        3.05384
H         -0.92529        0.62505        1.85367
H         -1.36364       -0.78360        2.83446
H          1.98539       -2.23273        1.74230
H          1.83046       -1.27526        3.21500
H          0.00195       -3.60097        2.25635
H          1.18451       -3.63913        3.61731
H         -0.30362       -2.65445        3.76736
H          0.99300        1.16079        3.40688
H         -0.62891        1.22857        4.18634
H          0.42968       -0.16747        4.50912
H          2.53650        3.15208       -7.36536
C          1.06616        1.57335       -7.30370
C          2.14693        2.42938       -6.61214
C         -0.11003        2.43935       -7.76180
H          1.48701        1.03937       -8.19171
H          0.71903        0.80646       -6.58110
H         -0.45715        3.04449       -6.90133
H          0.22244        3.12107       -8.57731
C         -1.29127        1.60120       -8.25513
H          2.99192        1.74693       -6.37220
H         -1.02154        0.99688       -9.14735
H         -1.64115        0.92303       -7.44706
H         -2.13000        2.27820       -8.52562
C         -0.14511        4.29760       -2.17851
C         -0.85671        3.75417       -1.12756
C         -0.78225        2.38671       -1.25790
C         -0.03374        2.16162       -2.40165
N          0.35693        3.31251       -2.97655
C          0.31422        0.82468       -2.95419
N         -0.12090       -0.29483       -2.09664
C          0.34835       -1.60665       -2.58865
H         -1.36563        4.29453       -0.33192
H         -0.00168        5.35142       -2.35588
H         -1.22955        1.65356       -0.59584
H          1.41055        0.84059       -3.06888
H         -0.17450        0.78698       -3.95168
C          1.87955       -1.73951       -2.38176
C         -0.38753       -2.65523       -1.74907
C          0.03243       -1.84490       -4.08742
H          2.16172       -1.57825       -1.32235
H          2.23528       -2.74563       -2.68255
H          2.44752       -1.01331       -2.99882
H         -1.48371       -2.55123       -1.90968
H         -0.08558       -3.68636       -2.02453
H         -0.18814       -2.49013       -0.66811
H         -1.05710       -1.78093       -4.28424
H          0.55806       -1.11540       -4.74026
H          0.39866       -2.84520       -4.40206
Na        -2.45100       -0.22607       -1.66906
Mg        -5.54136        1.36780       -2.19215
C          4.06312        0.35592        0.91927
C          3.29111        2.25257       -0.31076
O          3.11838        0.86713       -0.02507
C          4.19293        1.14745        2.23461
C          4.61269        2.57361       -1.03565
H          3.74640       -0.67156        1.18430
H          5.06493        0.23653        0.45061
H          2.47185        2.57171       -0.98332
H          3.18430        2.87367        0.60196
H          4.65212        2.07199       -2.02476
H          4.69069        3.67164       -1.19559
H          5.50349        2.27491       -0.44359
H          3.20325        1.26428        2.71397
H          4.86808        0.61017        2.93520
H          4.64724        2.14810        2.07133
H          2.84307        5.86085       -3.81852
C          4.10002        5.45006       -5.53527
C          3.23645        4.97116       -4.35972
C          3.30213        6.29434       -6.53233
H          4.94773        6.06542       -5.15080
H          4.52275        4.55712       -6.04089
H          2.41602        5.72243       -6.87461
H          2.96050        7.23166       -6.03817
C          4.14975        6.65527       -7.75415
H          3.90994        4.43752       -3.65551
H          5.04375        7.24763       -7.45990
H          4.48358        5.73170       -8.27336
H          3.54497        7.25814       -8.46432
C         -4.48579       -1.13450       -5.42098
C         -3.90965       -2.33856       -5.08509
C         -4.15002       -2.55273       -3.74070
C         -4.84338       -1.51266       -3.26713
N         -5.08853       -0.56346       -4.28020
C         -5.32790       -1.37845       -1.85511
N         -4.78109       -0.15731       -1.24147
C         -5.08976        0.01188        0.20429
H         -3.37936       -2.99493       -5.76134
H         -4.46910       -0.67687       -6.39889
H         -3.84108       -3.42020       -3.17062
H         -5.00165       -2.28043       -1.30146
H         -6.43509       -1.33965       -1.87873
C         -4.46595       -1.11433        1.05998
C         -4.48338        1.34985        0.66070
C         -6.61437        0.07185        0.45906
H         -3.36940       -1.16929        0.89210
H         -4.64688       -0.92410        2.14054
H         -4.91432       -2.10362        0.84107
H         -4.91729        2.19360        0.08216
H         -4.69114        1.52857        1.73964
H         -3.38349        1.35232        0.51573
H         -7.07661        0.89916       -0.12107
H         -7.11741       -0.87860        0.18908
H         -6.82036        0.24768        1.53796
