110
speciation2179.ct
Na         3.72741       -1.12487       -2.43039
Mg         7.57697        3.62874       -4.87108
C          6.23392       -3.03113       -2.90306
C          4.77835       -3.08021       -4.69554
O          4.87738       -2.94668       -3.29118
C          6.34984       -2.89727       -1.39160
C          3.32811       -2.95655       -5.13587
H          6.63376       -4.03892       -3.16294
H          6.85125       -2.23937       -3.38403
H          5.37588       -2.30178       -5.22284
H          5.12172       -4.09571       -5.00012
H          2.94455       -1.94046       -4.91038
H          3.26066       -3.12938       -6.23192
H          2.70259       -3.71335       -4.61715
H          5.72637       -3.66697       -0.88835
H          7.40857       -3.04422       -1.08686
H          6.01976       -1.88800       -1.06912
H          6.82021        1.58187       -6.54512
C          6.23403        3.27651       -7.77068
C          6.37020        2.58222       -6.40146
C          5.33512        2.58524       -8.79035
H          5.73764        4.23690       -7.63027
H          7.24884        3.42260       -8.20091
H          5.72519        1.57796       -9.03095
H          4.30700        2.49605       -8.37146
C          5.26576        3.43619      -10.06923
H          5.36473        2.45915       -5.94837
H          4.87406        4.45520       -9.84742
H          6.27730        3.54541      -10.51748
H          4.59418        2.96340      -10.81410
C          3.11553        4.58384        0.69670
C          2.26261        3.88454        1.51683
C          2.31464        2.55719        1.12287
C          3.21702        2.51238        0.07409
N          3.68567        3.73668       -0.17958
C          3.62751        1.32928       -0.74023
N          2.55264        0.73620       -1.55105
C          1.99258        1.54732       -2.68225
H          1.62772        4.30118        2.29695
H          3.26561        5.65347        0.70002
H          1.74745        1.73462        1.53535
H          4.00365        0.55691       -0.03635
H          4.48170        1.59537       -1.39211
C          3.09002        1.95302       -3.68954
C          0.95288        0.68522       -3.41867
C          1.23995        2.82175       -2.21414
H          3.61356        1.05344       -4.07675
H          2.64902        2.50237       -4.54975
H          3.83558        2.62988       -3.22983
H          0.15169        0.36107       -2.71963
H          0.47226        1.26673       -4.23872
H          1.42237       -0.21316       -3.86700
H          0.44259        2.57454       -1.48123
H          1.90389        3.58783       -1.79297
H          0.76577        3.33073       -3.08202
Na         4.97671        4.36089       -2.06651
Mg         1.05170        0.17008       -0.41451
C         10.06973        2.48557       -5.88521
C          9.88949        2.23507       -3.51974
O          9.45881        2.95282       -4.67972
C          9.97034        0.96850       -6.13443
C         11.37613        2.47015       -3.17612
H          9.57086        2.99842       -6.73043
H         11.13321        2.80997       -5.93727
H          9.30706        2.57030       -2.64493
H          9.66708        1.15345       -3.59219
H         11.56924        3.54225       -2.95985
H         11.65071        1.87731       -2.27658
H         12.05409        2.14290       -3.99206
H          8.91391        0.63946       -6.09185
H         10.38699        0.72285       -7.13365
H         10.56745        0.38679       -5.40120
H         -1.44258       -0.57550       -0.08745
C         -0.93915        0.31303        1.82313
C         -0.58771       -0.55925        0.62226
C         -2.15303       -0.24498        2.57985
H         -0.06668        0.36359        2.50606
H         -1.16833        1.33607        1.45313
H         -3.02384       -0.32277        1.89310
H         -1.91403       -1.26042        2.96738
C         -2.53529        0.65703        3.75346
H         -0.35850       -1.59869        0.94002
H         -1.69056        0.74263        4.46686
H         -2.80796        1.66815        3.38286
H         -3.41085        0.22534        4.28272
C          7.63879        6.38516       -7.78717
C          6.56479        7.20370       -8.04740
C          5.62929        7.00245       -7.04255
C          6.11892        6.09869       -6.18921
N          7.39707        5.66203       -6.61141
C          5.37735        5.54475       -4.99426
N          6.26775        4.98510       -3.95343
C          7.11323        6.01800       -3.24237
H          6.47377        7.86565       -8.89768
H          8.52945        6.29260       -8.39452
H          4.66145        7.47932       -6.97160
H          4.71019        4.73362       -5.35897
H          4.68557        6.29797       -4.57436
C          6.24792        7.11871       -2.59164
C          7.89395        5.29849       -2.14061
C          8.18739        6.72367       -4.12102
H          5.48593        6.67944       -1.91738
H          6.88167        7.81397       -1.99927
H          5.74011        7.74431       -3.35635
H          8.57597        4.57166       -2.60614
H          8.51954        6.01287       -1.56093
H          7.21639        4.77232       -1.43969
H          8.86492        5.98762       -4.60682
H          7.75102        7.41202       -4.87276
H          8.82718        7.39053       -3.50209
