83
speciation467.ct
Na         1.02208        0.01602       -0.09621
Mg         4.05541       -0.62237       -1.86045
C         -1.74441        0.42464       -1.38323
C         -1.76315        0.82716        0.97023
O         -1.29792        0.01602       -0.09621
C         -1.47999        1.89368       -1.74086
C         -3.26398        0.66247        1.22155
H         -1.18942       -0.19411       -2.11938
H         -2.81493        0.16650       -1.52639
H         -1.24519        0.48819        1.89084
H         -1.48660        1.89329        0.84631
H         -3.50012       -0.39900        1.44640
H         -3.56295        1.28693        2.08981
H         -3.85831        0.99285        0.34533
H         -0.40652        2.13739       -1.60000
H         -1.75450        2.06651       -2.80234
H         -2.10739        2.57760       -1.13138
C          6.92809        2.58789        0.77588
C          7.04708        2.44235       -0.58910
C          5.81676        2.00089       -1.04640
C          5.00147        1.91666        0.06844
N          5.68029        2.27220        1.16299
C          3.58818        1.45155        0.15023
N          3.39208        0.01602       -0.09621
C          3.94389       -0.97036        0.87621
H          7.95008        2.59683       -1.16800
H          7.72238        2.85493        1.46255
H          5.56963        1.75358       -2.06746
H          3.00427        2.02964       -0.59693
H          3.16516        1.71310        1.13972
C          3.41218       -0.74069        2.30236
C          3.51145       -2.37194        0.41085
C          5.49630       -0.98961        0.90325
H          2.30250       -0.79118        2.31824
H          3.81325       -1.50990        2.99740
H          3.72742        0.24265        2.69591
H          3.90512       -2.58062       -0.60522
H          3.90108       -3.15453        1.09673
H          2.40088       -2.44923        0.38188
H          5.91383       -1.12101       -0.11789
H          5.93020       -0.09122        1.36095
H          5.86718       -1.82340        1.53919
Na         5.06724        1.93308        3.42708
C          3.80853       -0.77191       -4.58081
C          4.83762       -2.65708       -3.53851
O          4.70207       -1.24473       -3.58036
C          2.40975       -1.40502       -4.57647
C          5.60814       -3.20764       -4.74123
H          3.67422        0.31450       -4.39521
H          4.27320       -0.84698       -5.58651
H          5.43159       -2.90920       -2.63504
H          3.86679       -3.17446       -3.40727
H          6.62520       -2.76344       -4.78014
H          5.70364       -4.31000       -4.64483
H          5.07895       -2.99523       -5.69238
H          1.95043       -1.31876       -3.56964
H          1.76732       -0.87863       -5.31301
H          2.44386       -2.46959       -4.88847
C          0.04686        1.85612        4.25688
C          0.86292        2.90308        3.89275
C          2.12579        2.64557        4.39613
C          2.08361        1.47648        5.04433
N          0.78801        0.91773        4.99116
C          3.21982        0.79566        5.75660
N          4.45419        1.59397        5.69116
C          5.63380        1.02953        6.38679
H          0.55454        3.77114        3.32014
H         -1.00419        1.76260        4.02297
H          2.99163        3.28326        4.28113
H          3.36504       -0.19156        5.27475
H          2.90518        0.65653        6.80915
C          6.00923       -0.36551        5.83966
C          6.81401        1.98098        6.12937
C          5.39849        0.95113        7.91193
H          6.17223       -0.32066        4.74121
H          6.94338       -0.73075        6.31935
H          5.22233       -1.11661        6.05508
H          6.58492        2.99993        6.50937
H          7.73556        1.61757        6.63543
H          7.02377        2.05531        5.04034
H          5.13418        1.95223        8.31472
H          4.58823        0.23915        8.16785
H          6.31636        0.59635        8.42852
