110
speciation2214.ct
Na         5.91528        1.89347        3.00509
Mg         2.49096        4.81727       -0.88191
C          7.02271        0.01517        5.04928
C          4.69364       -0.13779        5.19311
O          5.79028        0.65790        4.76523
C          7.26544       -1.22232        4.17927
C          3.38542        0.63300        5.17655
H          7.83380        0.74218        4.86748
H          7.10523       -0.24525        6.13427
H          4.57202       -1.03437        4.55343
H          4.83614       -0.45205        6.25679
H          3.11357        0.90508        4.13530
H          2.58219       -0.01680        5.59384
H          3.45830        1.54680        5.80456
H          7.17960       -0.94769        3.10797
H          8.27830       -1.62286        4.37757
H          6.54207       -2.03048        4.41281
H          1.52695        6.42817        1.14244
C          3.21367        5.59728        2.17815
C          2.08835        5.47438        1.14637
C          2.70069        6.02491        3.56984
H          3.73396        4.62533        2.27090
H          3.94822        6.35526        1.83114
H          3.56936        6.07124        4.26252
H          2.25155        7.04076        3.51548
C          1.66722        5.05920        4.15798
H          1.38932        4.69237        1.47853
H          0.73940        5.04950        3.54954
H          2.08447        4.03163        4.21232
H          1.38274        5.38903        5.17865
C          6.88685        4.16919        0.93797
C          6.58227        4.85135       -0.23229
C          5.40443        4.32675       -0.66575
C          5.04966        3.34502        0.19278
N          5.94282        3.23141        1.19817
C          3.83860        2.49835        0.05009
N          3.01868        2.83384       -1.14933
C          1.76013        1.98435       -1.16737
H          7.15776        5.64685       -0.70228
H          7.75118        4.35216        1.54750
H          4.84422        4.60167       -1.55510
H          4.20416        1.45721       -0.00053
H          3.27904        2.67549        0.97997
C          0.85782        2.21395        0.06923
C          0.85550        2.32755       -2.36188
C          2.11546        0.48630       -1.27252
H          0.52221        3.26844        0.09408
H         -0.05480        1.58175        0.00849
H          1.33412        1.94220        1.02762
H          1.32507        2.05849       -3.28669
H         -0.06957        1.70497       -2.34503
H          0.55256        3.39443       -2.37726
H          2.81333        0.35277       -2.10790
H          2.57819        0.09542       -0.34440
H          1.22729       -0.14412       -1.48204
Na         6.29911        4.39472       -2.99701
Mg         4.37612        2.49464       -2.80975
C          3.27752        7.04333       -2.38512
C          1.10193        7.19892       -1.45029
O          2.09301        6.35100       -2.00574
C          3.90827        7.95387       -1.33721
C          0.49893        8.16146       -2.47393
H          4.03207        6.28310       -2.56576
H          3.14120        7.57983       -3.34848
H          0.27830        6.55522       -1.07616
H          1.48543        7.77132       -0.58498
H          0.01670        7.59826       -3.29899
H         -0.26239        8.79327       -1.96916
H          1.27214        8.83869       -2.89117
H          3.97257        7.42074       -0.36889
H          4.93491        8.22199       -1.66888
H          3.32924        8.89388       -1.23489
H          3.87864        2.43631       -5.62564
C          2.76505        4.13839       -4.95046
C          3.25566        2.70714       -4.76856
C          3.95386        5.08775       -4.96182
H          2.18462        4.25197       -5.89261
H          2.09044        4.40064       -4.10403
H          3.57981        6.12902       -5.00186
H          4.52194        4.91264       -4.04007
C          4.89987        4.89264       -6.13828
H          2.40799        2.02244       -4.94684
H          5.34664        3.87990       -6.14618
H          4.35543        5.07446       -7.08697
H          5.73742        5.61152       -6.04209
C          8.60002        6.07977       -4.47071
C          9.71444        5.54621       -5.11133
C          9.62781        4.15843       -4.90217
C          8.48620        3.96034       -4.10600
N          7.84372        5.09357       -3.92749
C          7.98012        2.72558       -3.25983
N          6.51263        2.20426       -3.20511
C          6.44806        0.75448       -3.67359
H         10.47520        6.08413       -5.64747
H          8.39079        7.13905       -4.41226
H         10.37627        3.46831       -5.25162
H          8.76644        1.97966       -3.34039
H          8.14781        3.11341       -2.23288
C          7.49327       -0.18616       -2.96731
C          5.11349       -0.00655       -3.36623
C          6.55030        0.77158       -5.19801
H          7.24715       -0.27929       -1.88288
H          7.43910       -1.21016       -3.39743
H          8.56211        0.04711       -3.02212
H          4.21265        0.44847       -3.80809
H          5.16077       -1.02668       -3.83089
H          4.95755       -0.21847       -2.28397
H          5.62458        1.22655       -5.59573
H          7.39276        1.39266       -5.54708
H          6.60825       -0.25287       -5.61744
