110
speciation2163.ct
Na        -0.12480       -1.29478       -0.70597
Mg         2.88693        3.12117        3.33031
C         -0.95661       -1.44124       -3.77780
C         -2.39404       -0.10900       -2.46489
O         -1.57376       -1.25264       -2.51736
C          0.03833       -0.34428       -4.16900
C         -2.93797        0.02949       -1.04307
H         -0.39514       -2.39726       -3.71548
H         -1.72093       -1.58604       -4.57317
H         -1.82106        0.82936       -2.67232
H         -3.24886       -0.20984       -3.15319
H         -2.10667        0.19365       -0.32368
H         -3.63264        0.89308       -0.98181
H         -3.48302       -0.89453       -0.75559
H          0.77886       -0.18707       -3.35767
H          0.57434       -0.65246       -5.09169
H         -0.48022        0.60941       -4.39608
H          4.72642        5.15050        2.84048
C          5.65007        3.66286        1.54563
C          4.85435        4.04911        2.80053
C          4.91046        3.98447        0.25602
H          6.63090        4.19912        1.55711
H          5.86502        2.57133        1.58630
H          3.94987        3.43138        0.26918
H          4.71294        5.07684        0.19216
C          5.71186        3.55336       -0.97466
H          5.55435        3.76210        3.59703
H          6.63194        4.16745       -1.08964
H          6.00186        2.48288       -0.90110
H          5.08490        3.68409       -1.88108
C          4.42951        0.72152        3.94856
C          4.78018       -0.59438        3.74686
C          3.97995       -1.04956        2.72792
C          3.14665       -0.00427        2.37072
N          3.41634        1.10154        3.13698
C          2.13870       -0.07135        1.23793
N          1.35540       -1.33782        1.14445
C          0.47777       -1.67344        2.31973
H          5.54926       -1.15254        4.27108
H          4.93019        1.36806        4.65000
H          4.00909       -2.04844        2.30926
H          2.73533       -0.00903        0.30567
H          1.48584        0.82090        1.24914
C         -0.38613       -0.47364        2.76264
C         -0.46546       -2.81918        1.91459
C          1.25414       -2.17992        3.56918
H         -0.89757       -0.01144        1.89371
H         -1.15540       -0.78210        3.50492
H          0.24918        0.27610        3.27385
H          0.11672       -3.72289        1.63504
H         -1.12774       -3.09848        2.76752
H         -1.11755       -2.52463        1.06880
H          1.90735       -3.04105        3.31635
H          1.84519       -1.38654        4.06144
H          0.54594       -2.51344        4.36104
Na         2.19196        5.73238        5.19769
Mg        -1.38643        1.29458        7.69009
C          1.47548        5.12019        1.49757
C          0.12147        3.29208        2.12664
O          1.45946        3.76369        1.96395
C          0.86245        6.18057        2.42788
C         -0.72105        3.19834        0.83863
H          2.52346        5.40712        1.29741
H          0.98834        5.19799        0.50189
H          0.17830        2.27279        2.52022
H         -0.45134        3.89030        2.86508
H         -0.22284        2.56097        0.08168
H         -1.70999        2.74943        1.08361
H         -0.94075        4.19667        0.40628
H          1.42381        6.22421        3.36178
H          0.94201        7.18205        1.95321
H         -0.21294        6.01951        2.64430
H         -3.10393       -0.63430        7.30235
C         -2.34064       -0.94194        9.32429
C         -2.14042       -0.59401        7.85240
C         -1.02085       -0.97038       10.11518
H         -3.03664       -0.20730        9.78150
H         -2.80194       -1.95128        9.38711
H         -1.25468       -1.25966       11.16250
H         -0.33780       -1.73898        9.69062
C         -0.29972        0.37748       10.14127
H         -1.43212       -1.31613        7.39303
H          0.03523        0.66491        9.12396
H         -0.96542        1.16565       10.55191
H          0.60068        0.30136       10.78758
C         -1.33050        4.10975        8.16313
C         -1.05067        5.32983        7.59304
C         -0.17318        5.08798        6.56530
C          0.07546        3.73247        6.56398
N         -0.65093        3.13688        7.53175
C          0.94952        3.00330        5.56851
N          2.29541        3.61905        5.37977
C          3.17394        3.60059        6.59410
H         -1.49567        6.28100        7.84754
H         -2.07693        3.93386        8.92592
H          0.18823        5.83048        5.87317
H          0.41885        3.06784        4.62418
H          1.02170        1.91486        5.78237
C          3.39485        2.18344        7.16536
C          4.52346        4.21930        6.20783
C          2.66017        4.48822        7.76946
H          3.77924        1.49155        6.40518
H          4.12306        2.21231        8.00134
H          2.44810        1.76007        7.55967
H          4.38500        5.20876        5.72703
H          5.18571        4.35859        7.08988
H          5.05027        3.52975        5.54205
H          2.48856        5.53687        7.45371
H          1.75537        4.09115        8.25829
H          3.40021        4.50795        8.59480
