80
speciation916.ct
Na         4.21422        1.03620       -1.92969
Mg         3.97311        1.68516       -6.23052
H          4.85667        3.98299       -7.22484
C          2.95635        3.89973       -8.21210
C          4.21783        3.20853       -7.69552
C          2.14627        4.51927       -7.06681
H          3.25622        4.70209       -8.92473
H          2.33102        3.15901       -8.75165
H          1.84163        3.71790       -6.36020
H          2.76275        5.26510       -6.51664
C          0.89377        5.21653       -7.59809
H          4.78679        2.78604       -8.54999
H          1.17165        6.05816       -8.26891
H          0.26200        4.49766       -8.16195
H          0.29956        5.62151       -6.75166
C          6.67915        3.35892       -1.07803
C          7.49524        4.34993       -1.60392
C          7.12519        4.49152       -2.90634
C          6.10628        3.61744       -3.10477
N          5.80875        2.91537       -2.02324
C          5.43024        3.40910       -4.39974
N          5.06263        2.02807       -4.53008
C          6.04741        0.85079       -4.37585
H          8.28005        4.88849       -1.08920
H          6.75799        3.01667       -0.07110
H          7.55977        5.15302       -3.64571
H          4.46167        3.95299       -4.31825
H          5.98296        3.82443       -5.25577
C          6.28564        0.23127       -2.95217
C          5.44777       -0.33486       -5.13356
C          7.44008        1.14467       -4.94564
H          5.41470       -0.33030       -2.58224
H          6.99885       -0.61569       -3.00520
H          6.76556        0.86402       -2.19549
H          5.42530       -0.10339       -6.20751
H          6.03884       -1.27043       -5.00547
H          4.43033       -0.54500       -4.73027
H          7.38638        1.41385       -6.01596
H          7.94030        1.94350       -4.36298
H          8.07566        0.23040       -4.85487
Na         2.19980        4.71855       -1.36754
Mg         3.96268        2.35687       -2.90463
H          3.76212       -0.85474       -7.37736
C          1.87359       -0.08633       -7.98622
C          2.97927       -0.18778       -6.94926
C          1.31657       -1.47646       -8.35620
H          1.06299        0.54411       -7.56899
H          2.29097        0.39477       -8.89541
H          2.12401       -2.11568       -8.78003
H          0.91050       -1.98503       -7.45312
C          0.20144       -1.34931       -9.38921
H          2.57181       -0.69224       -6.04598
H         -0.63344       -0.74648       -8.97330
H          0.58673       -0.85722      -10.30731
H         -0.18565       -2.35469       -9.66010
C          4.89520       -0.79571       -0.02954
C          5.87884       -0.37208        0.81881
C          5.60005        0.97288        1.10513
C          4.41054        1.29787        0.41930
N          4.13028        0.25311       -0.30188
C          3.66219        2.63704        0.05008
N          2.86272        2.68567       -1.27918
C          1.55813        1.91861       -1.39368
H          6.74124       -0.97569        1.07488
H          4.83849       -1.73136       -0.56870
H          6.29374        1.61536        1.64161
H          3.00692        2.90930        0.89916
H          4.38634        3.47220        0.04647
C          0.65035        2.17749       -0.17700
C          0.84294        2.42377       -2.66108
C          1.65063        0.37085       -1.60916
H          0.46144        3.26406       -0.06108
H         -0.32682        1.66028       -0.29839
H          1.10642        1.78060        0.75371
H          1.47207        2.22836       -3.55800
H         -0.12603        1.89248       -2.80821
H          0.62613        3.50686       -2.60462
H          2.24502        0.10456       -2.51129
H          1.96635       -0.21424       -0.73161
H          0.63345       -0.04657       -1.78808
