110
speciation2668.ct
Na         6.08006        1.08161       -2.91246
Mg         2.39549        4.40100       -1.04354
C          5.47123        5.07007       -0.58895
C          3.88297        6.69812       -1.22784
O          4.18205        5.32002       -1.15898
C          5.54954        5.33884        0.91232
C          4.81331        7.55883       -2.07643
H          5.78713        4.03806       -0.82295
H          6.27259        5.62641       -1.11653
H          2.89022        6.77932       -1.69550
H          3.84652        7.12790       -0.23181
H          4.90783        7.15415       -3.10205
H          4.37831        8.58015       -2.12283
H          5.80912        7.66329       -1.60166
H          4.77708        4.75257        1.44719
H          6.55609        5.05142        1.28399
H          5.41940        6.41883        1.12600
H         -1.82864        1.70664       -0.12415
C         -3.00330        3.39241        0.27240
C         -1.96132        2.37449        0.73406
C         -4.21804        2.66940       -0.35789
H         -3.31384        4.01561        1.13514
H         -2.54136        4.03962       -0.50455
H         -3.87307        2.12745       -1.26662
H         -4.65141        1.92234        0.34462
C         -5.32805        3.63527       -0.76427
H         -2.45009        1.75937        1.51797
H         -5.82293        4.04944        0.13934
H         -4.92462        4.46556       -1.38036
H         -6.09235        3.09142       -1.36207
C          5.86817       -0.88517       -0.65436
C          5.35843       -1.25171        0.56494
C          4.46140       -0.25892        0.91634
C          4.46600        0.66355       -0.10650
N          5.34415        0.28892       -1.07219
C          3.66570        1.97759       -0.11302
N          2.83030        2.29197       -1.28122
C          1.66871        1.40764       -1.62175
H          5.61877       -2.12038        1.14761
H          6.62123       -1.43766       -1.20515
H          3.92658       -0.24897        1.84685
H          3.09236        2.13432        0.80586
H          4.42901        2.73230       -0.04039
C          0.67559        1.28257       -0.50335
C          0.89874        2.02839       -2.78117
C          2.09546       -0.00865       -2.06309
H          0.41427        2.29759       -0.15235
H         -0.19959        0.71440       -0.87275
H          1.04477        0.64180        0.27407
H          1.54784        2.07772       -3.66780
H          0.00575        1.42730       -3.06261
H          0.51741        3.01027       -2.46475
H          2.80258        0.02642       -2.91367
H          2.54175       -0.58094       -1.22998
H          1.20467       -0.58478       -2.40019
Na         4.09092        1.78898       -2.91373
Mg         0.04280        3.01300        1.65797
C          0.36832        5.42359       -3.25928
C          2.30222        4.65294       -4.24296
O          1.71373        5.05014       -2.98351
C          0.28312        6.78269       -3.97934
C          3.76103        4.23809       -4.19171
H         -0.20263        4.65423       -3.82473
H         -0.16442        5.46509       -2.32476
H          1.70988        3.84512       -4.71946
H          2.31873        5.47495       -4.98416
H          4.00548        3.77123       -3.23896
H          3.96905        3.55332       -5.05205
H          4.42593        5.11415       -4.30363
H          0.62018        6.70365       -5.03449
H         -0.76648        7.13006       -4.02564
H          0.91040        7.54012       -3.46442
H          2.07241        0.74035        1.92451
C          1.42047        0.35004        3.81560
C          1.61443        1.36424        2.67946
C          0.36931       -0.70383        3.50103
H          2.38947       -0.18263        3.98554
H          1.16831        0.88143        4.75652
H          0.64429       -1.25404        2.57346
H          0.31986       -1.43159        4.33988
C         -0.97965       -0.04006        3.33517
H          2.46572        1.94324        3.08389
H         -1.24787        0.50588        4.26457
H         -0.90076        0.67262        2.50022
H         -1.75756       -0.79165        3.10353
C         -1.35083        3.46835        4.16177
C         -0.95482        4.31439        5.17571
C          0.23558        4.90836        4.75584
C          0.51402        4.39147        3.48389
N         -0.46398        3.56120        3.16764
C          1.64062        4.66605        2.43202
N          1.08445        4.91962        1.04631
C          0.47912        6.36079        1.11500
H         -1.49935        4.46803        6.09826
H         -2.22666        2.82908        4.14209
H          0.80264        5.63770        5.31575
H          2.36702        5.40977        2.79630
H          2.26241        3.79037        2.32756
C          1.47112        7.45564        1.63866
C          0.01136        6.82863       -0.25268
C         -0.78572        6.53181        2.01445
H          2.41570        7.45022        1.11286
H          1.04819        8.47960        1.53088
H          1.69177        7.37684        2.72316
H         -0.85062        6.20986       -0.56246
H         -0.37270        7.87644       -0.21250
H          0.84968        6.84354       -0.96238
H         -1.58167        5.80637        1.76227
H         -0.56953        6.52648        3.08948
H         -1.20894        7.55785        1.90348
