110
speciation2054.ct
Na         6.06423        2.82395        3.02423
Mg         2.06652        4.93164       -0.96991
C          7.54924        1.59404        5.33948
C          5.28629        1.01438        5.81757
O          6.17152        1.90548        5.15197
C          7.95956        0.15195        4.99795
C          5.40996        1.10033        7.35213
H          8.12030        2.25627        4.65556
H          7.88447        1.88214        6.35723
H          4.24378        1.29392        5.56191
H          5.41061       -0.02675        5.46293
H          5.11987        2.11872        7.70513
H          4.74420        0.35835        7.82988
H          6.43954        0.88801        7.70669
H          7.67451       -0.09516        3.95390
H          9.06012        0.04981        5.10315
H          7.50675       -0.58267        5.69546
H          1.18253        6.20820        1.23882
C          2.53905        4.76340        2.12834
C          1.52712        5.16881        1.06012
C          1.87708        4.71114        3.51203
H          2.90258        3.75040        1.90454
H          3.39852        5.46614        2.11557
H          1.47602        5.71302        3.77121
H          1.03463        3.98255        3.49255
C          2.86012        4.26602        4.59136
H          0.63467        4.52144        1.14647
H          3.22251        3.23580        4.38650
H          3.72702        4.95744        4.63387
H          2.34992        4.26978        5.57816
C          6.84416        4.69438        0.49655
C          6.69684        4.99484       -0.81409
C          5.67339        4.20255       -1.30916
C          5.20292        3.48357       -0.24263
N          5.95463        3.76222        0.85063
C          4.08482        2.44558       -0.29370
N          2.93127        2.79353       -1.20279
C          1.88377        1.73781       -1.25265
H          7.23024        5.72741       -1.36807
H          7.57003        5.13533        1.17135
H          5.30767        4.16655       -2.31058
H          4.59173        1.54044       -0.66142
H          3.77403        2.20451        0.73703
C          1.25091        1.54928        0.14036
C          0.82399        2.20573       -2.24746
C          2.39385        0.36858       -1.80996
H          1.00426        2.52563        0.57205
H          0.31192        0.96083        0.08280
H          1.93646        1.02537        0.83549
H          1.28345        2.38867       -3.24677
H         -0.00514        1.47657       -2.35960
H          0.41061        3.13654       -1.90273
H          3.43115        0.10951       -1.55839
H          1.76036       -0.46162       -1.42831
H          2.33910        0.32356       -2.92121
Na         4.24126        2.40195       -3.13863
Mg         7.11389        6.70106       -4.50470
C          3.01279        6.86255       -3.06159
C          4.36833        6.90732       -1.11964
O          3.11467        6.54008       -1.66676
C          4.02709        6.18483       -3.99016
C          4.70760        8.39739       -1.07562
H          2.01355        6.56003       -3.41454
H          3.03794        7.96262       -3.21580
H          4.42524        6.50224       -0.08833
H          5.15522        6.50784       -1.73470
H          3.98961        8.96986       -0.46261
H          5.72531        8.49600       -0.62936
H          4.78209        8.82368       -2.09880
H          3.97044        5.08506       -3.87790
H          3.79809        6.44534       -5.04525
H          5.06354        6.53904       -3.82087
H          0.11893        5.49182       -2.89709
C         -0.46596        6.90839       -1.34621
C          0.06068        5.52928       -1.78929
C         -1.84292        7.20849       -1.97279
H         -0.57178        6.90321       -0.24117
H          0.25380        7.70262       -1.63521
H         -1.74918        7.25188       -3.07855
H         -2.56124        6.40181       -1.71254
C         -2.43251        8.52887       -1.47783
H         -0.71177        4.81004       -1.44891
H         -2.59552        8.49169       -0.37896
H         -1.75779        9.37135       -1.72600
H         -3.41520        8.70310       -1.96903
C          5.69494        0.78017       -5.60792
C          6.50839        0.82853       -6.71459
C          6.89224        2.13999       -6.87263
C          6.30598        2.84529       -5.83745
N          5.55126        2.01036       -5.07447
C          6.48498        4.33146       -5.64077
N          7.18363        4.74006       -4.39012
C          8.63758        4.43999       -4.27933
H          6.79280       -0.00339       -7.34837
H          5.22103       -0.10660       -5.20779
H          7.53241        2.53640       -7.64838
H          7.00291        4.77732       -6.51196
H          5.47885        4.78217       -5.66157
C          9.41315        4.80663       -5.56172
C          9.26577        5.29639       -3.15573
C          8.85330        2.96646       -3.88767
H          9.26333        5.88792       -5.80121
H         10.50182        4.64388       -5.40580
H          9.11466        4.18712       -6.42315
H          8.92426        4.97600       -2.16541
H         10.36414        5.15863       -3.10611
H          9.06255        6.38038       -3.30335
H          9.93347        2.72729       -3.86442
H          8.37830        2.26652       -4.58451
H          8.42674        2.77715       -2.87818
