83
Fixed geometry for speciation527.xyz
Na 2.42755 -0.20755 1.46227
Mg 0.02375 2.00694 -1.40803
C 4.78937 -0.08506 3.81052
C 2.54042 -0.71205 4.36913
O 3.46242 -0.39287 3.34882
C 5.58926 -1.34980 4.01275
C 2.43451 0.26100 5.56514
H 5.34199 0.47975 3.02636
H 4.83048 0.67698 4.62690
H 1.54048 -0.71022 3.88374
H 2.73755 -1.73991 4.72028
H 2.07766 1.27080 5.29768
H 1.69749 -0.15879 6.27560
H 3.37899 0.36885 6.12772
H 5.10202 -2.07945 3.41144
H 6.58734 -1.28084 3.50761
H 5.26830 -2.09800 4.74438
C -0.64226 5.16708 -0.27792
C -0.72850 5.42723 1.09390
C -0.48242 4.27228 1.68811
C -0.11550 3.43841 0.62799
N -0.37843 3.85350 -0.52837
C 0.64881 2.13465 0.21346
N 1.77415 1.60553 0.72868
C 2.43630 2.66350 1.54870
H -0.84506 6.34974 1.65634
H -0.64352 5.95627 -1.01349
H -0.46393 4.15157 2.76712
H 1.43412 2.02162 -0.61060
H 1.13635 2.92870 -0.45015
C 1.52147 2.74757 2.81903
C 3.75385 2.26988 2.16565
C 2.89390 3.86091 0.58390
H 1.58960 1.81480 3.38581
H 1.67248 3.63263 3.45826
H 0.48841 2.36355 2.69486
H 4.37118 1.67303 1.47617
H 4.27041 3.16776 2.55839
H 3.60247 1.79700 3.12206
H 3.51493 3.39544 -0.23416
H 2.11815 4.41276 0.01883
H 3.50774 4.64638 1.04416
Na 2.64548 -2.93718 0.85970
C 1.73851 2.87569 -3.44660
C -0.60531 2.99898 -3.43253
O 0.52393 2.16220 -3.21978
C 2.21908 2.65820 -4.88668
C -0.97171 3.18022 -4.88901
H 1.67407 3.94679 -3.16618
H 2.56110 2.48833 -2.81240
H -1.46265 2.50408 -2.93215
H -0.50217 3.99871 -2.95384
H -0.93579 2.19573 -5.39967
H -1.98601 3.61511 -4.97035
H -0.29283 3.92176 -5.35131
H 1.45132 2.86328 -5.63966
H 3.06986 3.33216 -5.10162
H 2.51324 1.60191 -5.05360
C -2.29766 0.81422 -0.27339
C -2.91013 -0.24453 0.34582
C -2.02972 -1.29866 0.27736
C -0.88791 -0.85320 -0.37358
N -1.08461 0.45646 -0.73263
C 0.33261 -1.80191 -0.53966
N 1.73281 -1.35078 -0.24721
C 2.59199 -1.20703 -1.45848
H -3.87880 -0.23560 0.82631
H -2.69474 1.81956 -0.34334
H -2.18934 -2.28548 0.68876
H 0.15154 -2.64341 0.16186
H 0.25294 -2.28713 -1.53148
C 2.01780 -0.11371 -2.33235
C 4.03399 -0.79379 -1.07697
C 2.68797 -2.51782 -2.26613
H 2.06753 0.78176 -1.71893
H 2.61348 0.04063 -3.25526
H 0.96245 -0.29827 -2.61441
H 4.54309 -1.59471 -0.50168
H 4.63560 -0.60806 -1.99940
H 4.04944 0.13901 -0.47987
H 3.50398 -3.13164 -1.87962
H 2.49609 -3.42084 -1.66809
H 3.17509 -2.36227 -3.25814
