66
speciation177.ct
Na         1.20729        0.21477        0.18281
Mg         6.50717        2.42523        2.70102
H          9.03707        2.94779        2.41606
C          9.01253        0.79934        2.70779
C          8.50610        2.19707        3.03844
C          8.30902       -0.25274        3.56971
H          8.82736        0.59131        1.63208
H         10.10789        0.76495        2.89842
H          8.48392       -0.03330        4.64625
H          7.21513       -0.22627        3.37248
C          8.83969       -1.65140        3.26714
H          8.69752        2.42407        4.10903
H          8.66604       -1.90837        2.20070
H          9.92865       -1.70482        3.48285
H          8.31625       -2.39512        3.90413
C          3.87113        3.69368        2.86465
C          2.51944        3.50195        2.68764
C          2.36736        2.28713        2.05319
C          3.63885        1.77978        1.86631
N          4.55724        2.64780        2.37187
C          3.96030        0.40090        1.32883
N          3.33426        0.09283        0.01027
C          3.66757       -1.25723       -0.51443
H          1.72794        4.16209        3.01707
H          4.32809        4.52965        3.37695
H          1.42824        1.81686        1.80278
H          3.57649       -0.30778        2.08789
H          5.06429        0.32305        1.28512
C          3.14314       -2.38222        0.40846
C          2.98433       -1.40179       -1.88323
C          5.19334       -1.42651       -0.71019
H          2.04706       -2.28576        0.56245
H          3.34863       -3.37880       -0.03936
H          3.64281       -2.37537        1.39803
H          3.34255       -0.61636       -2.58266
H          3.20479       -2.39642       -2.32840
H          1.88270       -1.30594       -1.77814
H          5.60378       -0.58993       -1.31488
H          5.73162       -1.46384        0.25995
H          5.42014       -2.38359       -1.22690
Mg         3.99759        1.37453       -1.35989
C          5.33839        2.40988       -3.86660
C          5.59720        3.59383       -4.53128
C          5.04744        4.60347       -3.77007
C          4.47580        3.98990       -2.67390
N          4.66092        2.65623       -2.73005
C          3.75486        4.67657       -1.56243
N          2.58680        5.38655       -2.10250
C          1.71258        6.05708       -1.11611
H          6.12718        3.70825       -5.46754
H          5.63247        1.42233       -4.19516
H          5.06064        5.66350       -3.98873
H          3.44581        3.89528       -0.83786
H          4.45790        5.38147       -1.07552
C          2.46876        7.17321       -0.36042
C          0.54658        6.69374       -1.88707
C          1.12252        5.04788       -0.11433
H          2.88731        7.90979       -1.07964
H          1.78359        7.70661        0.33161
H          3.29929        6.76350        0.25157
H         -0.01247        5.91322       -2.44933
H         -0.15915        7.19653       -1.19256
H          0.92340        7.44222       -2.61425
H          0.59490        4.22738       -0.64451
H          1.92161        4.61478        0.50267
H          0.41121        5.54497        0.57948
