96
speciation1060.ct
Na         0.66276       -0.16371       -0.15600
Mg         1.01671        2.05891        2.78670
C         -0.91636       -3.15840        0.79478
C          0.90746       -2.45406        2.11594
O          0.17032       -2.22326        0.90236
C         -1.97155       -3.09195        1.91173
C          1.23188       -3.93703        2.46852
H         -1.42865       -3.07879       -0.16068
H         -0.51919       -4.19004        0.70479
H          1.88725       -1.98580        1.98443
H          0.41860       -1.96626        2.98735
H          0.36918       -4.43940        2.96427
H          2.07952       -3.98975        3.18268
H          1.51713       -4.52642        1.57140
H         -2.61108       -2.19742        1.79446
H         -2.61193       -3.99777        1.85155
H         -1.52774       -3.09181        2.92633
H          0.13683        1.31217        5.20719
C          2.31497        1.25918        5.28231
C          0.99812        1.03353        4.56159
C          2.46574        0.40498        6.54843
H          3.13907        1.02116        4.58262
H          2.38402        2.33466        5.55165
H          3.44494        0.66342        7.01141
H          1.66287        0.64950        7.27804
C          2.45978       -1.09859        6.26519
H          0.90523       -0.02029        4.23941
H          1.47091       -1.43218        5.88854
H          3.24197       -1.35500        5.51893
H          2.66781       -1.65383        7.20339
C          2.14313        4.94864        2.78977
C          2.27261        5.84429        1.73635
C          1.74249        5.21889        0.62128
C          1.30178        3.98215        1.05203
N          1.56032        3.81583        2.35112
C          0.62805        2.91326        0.22492
N          0.13457        1.76897        1.05210
C         -1.30577        1.83417        1.43126
H          2.71106        6.83059        1.77538
H          2.47492        5.11777        3.80179
H          1.68267        5.62865       -0.37750
H          1.37522        2.54505       -0.50561
H         -0.17629        3.39018       -0.36037
C         -2.21821        1.83216        0.20625
C         -1.60626        0.56809        2.24206
C         -1.64436        3.06745        2.29939
H         -1.89182        1.00442       -0.40500
H         -3.28058        1.68594        0.49161
H         -2.17537        2.76067       -0.39266
H         -1.08844        0.58050        3.21064
H         -2.69055        0.45873        2.45312
H         -1.26196       -0.31681        1.67771
H         -1.02870        3.09489        3.21983
H         -1.48833        4.01434        1.73621
H         -2.71564        3.03762        2.60489
Mg         3.48844        1.69233       -0.71472
C          0.19727        1.33250       -3.02486
C         -1.53012       -0.14922       -2.63081
O         -0.15669        0.11011       -2.34736
C         -0.08444        1.37054       -4.56184
C         -2.06930       -1.29513       -1.82612
H         -0.33242        2.18936       -2.55104
H          1.27988        1.52041       -2.91077
H         -2.18335        0.74949       -2.49668
H         -1.63429       -0.51701       -3.66959
H         -3.10409       -1.52499       -2.15764
H         -2.09843       -1.06773       -0.74435
H         -1.41820       -2.16292       -2.04404
H         -1.14699        1.19253       -4.83064
H          0.54455        0.64133       -5.11370
H          0.12702        2.38534       -4.95805
C          5.32799        3.17392        1.25128
C          5.72716        2.71752        2.49515
C          5.16448        1.46260        2.65747
C          4.42262        1.22777        1.51771
N          4.53335        2.24652        0.66243
C          3.58241       -0.02363        1.22198
N          2.97898       -0.05428       -0.16152
C          3.69783       -0.95460       -1.10971
H          6.37478        3.22680        3.18964
H          5.58942        4.12158        0.80453
H          5.26819        0.82080        3.52503
H          2.77024       -0.01410        1.97116
H          4.20948       -0.90799        1.43442
C          3.65219       -2.44241       -0.67697
C          3.00935       -0.84226       -2.46848
C          5.17288       -0.51201       -1.29116
H          2.60584       -2.77789       -0.53347
H          4.11864       -3.07783       -1.46381
H          4.22306       -2.65026        0.24752
H          3.05181        0.20463       -2.83088
H          3.50840       -1.48282       -3.22688
H          1.95427       -1.16978       -2.38626
H          5.22316        0.54248       -1.63778
H          5.75338       -0.59773       -0.35184
H          5.67657       -1.14612       -2.05538
