110
speciation2117.ct
Na         0.94078        0.08036       -0.00590
Mg         4.98194       -1.85777       -4.68850
C         -1.80955       -0.60359        1.16463
C         -1.81427       -0.51348       -1.22002
O         -1.37922        0.08036       -0.00590
C         -1.49438       -2.10571        1.20838
C         -3.32172       -0.37138       -1.44068
H         -1.27578       -0.13466        2.01782
H         -2.88867       -0.42013        1.35170
H         -1.31482        0.02566       -2.05248
H         -1.48994       -1.56900       -1.31431
H         -3.61022        0.69993       -1.45678
H         -3.59578       -0.82928       -2.41639
H         -3.89886       -0.89573       -0.65102
H         -0.41324       -2.27838        1.02536
H         -1.75907       -2.50682        2.20913
H         -2.09877       -2.66963        0.46788
H          5.81377       -2.30291       -1.97245
C          6.72556       -4.18880       -2.35557
C          5.64886       -3.11063       -2.71308
C          8.20634       -3.89742       -2.70746
H          6.66188       -4.47763       -1.27504
H          6.44836       -5.09278       -2.93392
H          8.74472       -4.87096       -2.65482
H          8.24823       -3.53272       -3.74939
C          9.02406       -2.96624       -1.79349
H          4.68384       -3.59445       -2.42953
H          8.61324       -1.94033       -1.73622
H          9.13754       -3.38716       -0.76845
H         10.05551       -2.89892       -2.21537
C          2.54150        0.18873       -4.75147
C          1.69388        1.01532       -4.05670
C          2.00151        0.87595       -2.73878
C          3.06571       -0.01707       -2.65644
N          3.38521       -0.46882       -3.91879
C          3.74958       -0.46637       -1.34854
N          3.31078        0.08036       -0.00590
C          3.75732        1.46236        0.41292
H          0.92678        1.67156       -4.45892
H          2.52820        0.10515       -5.82541
H          1.48786        1.37643       -1.93261
H          4.83419       -0.34050       -1.46772
H          3.55408       -1.56375       -1.30649
C          3.21446        2.63373       -0.45352
C          3.26146        1.72642        1.83488
C          5.30929        1.53964        0.41201
H          3.49174        2.57492       -1.52492
H          2.11518        2.74874       -0.33805
H          3.63660        3.59255       -0.09219
H          3.62671        0.94931        2.54478
H          3.60949        2.71900        2.19609
H          2.15076        1.73628        1.85945
H          5.74649        0.74722        1.05778
H          5.73548        1.44493       -0.59880
H          5.63585        2.53537        0.78034
Na         4.10077       -1.50742        1.56629
Mg         3.83363       -4.64332        2.95821
C          5.51822       -4.05847       -6.88661
C          4.53621       -2.29867       -8.01168
O          4.75887       -2.84234       -6.65489
C          6.93452       -3.91632       -7.53581
C          3.47051       -1.23540       -8.16717
H          5.59986       -4.66583       -5.96917
H          4.92133       -4.74650       -7.54179
H          5.44966       -1.86427       -8.44325
H          4.19521       -3.09384       -8.71865
H          3.74109       -0.33624       -7.60809
H          3.44694       -0.93691       -9.24724
H          2.46853       -1.61659       -7.89969
H          7.14429       -2.95426       -8.03770
H          7.09460       -4.71922       -8.29978
H          7.72895       -4.04005       -6.78003
H          6.85312       -0.11467       -4.11567
C          6.66044        0.18807       -6.27466
C          6.64154       -0.70636       -5.02915
C          5.64448        1.32685       -6.22938
H          7.67528        0.61360       -6.39078
H          6.45952       -0.45338       -7.15251
H          4.63507        0.92497       -6.07992
H          5.87298        2.00571       -5.38179
C          5.65615        2.12049       -7.53849
H          7.41737       -1.48825       -5.15748
H          6.65468        2.56777       -7.71302
H          5.40514        1.45547       -8.39803
H          4.89875        2.93026       -7.49851
C          5.41531       -7.13634        2.25520
C          6.77667       -7.21216        2.02121
C          7.28263       -5.93394        2.17921
C          6.20929       -5.13565        2.50755
N          5.08430       -5.86738        2.54548
C          6.23872       -3.63334        2.79193
N          4.89076       -3.09519        3.13848
C          4.67399       -2.66519        4.53733
H          7.33667       -8.09986        1.76127
H          4.71122       -7.95649        2.20932
H          8.31235       -5.62270        2.07014
H          6.59855       -3.12028        1.87650
H          6.98158       -3.44015        3.58995
C          5.53535       -1.43321        4.88406
C          3.19052       -2.27972        4.66727
C          4.96032       -3.81308        5.53295
H          5.33567       -0.60430        4.17251
H          5.30219       -1.07808        5.91199
H          6.61892       -1.66514        4.85827
H          2.54135       -3.15258        4.43728
H          2.95740       -1.93512        5.69842
H          2.93560       -1.46299        3.95821
H          4.33205       -4.69883        5.29750
H          6.02359       -4.12622        5.51345
H          4.72945       -3.49087        6.57191
