81
speciation397.ct
Na         1.39285        0.40217       -0.84970
Mg         2.08510        0.59793       -2.36042
C         -0.23259       -2.35722       -1.39401
C         -1.44557       -0.82527       -0.14573
O         -0.14168       -1.21302       -0.54225
C         -0.81785       -2.05721       -2.77945
C         -1.35852        0.22792        0.92732
H          0.77491       -2.79038       -1.50528
H         -0.81884       -3.18004       -0.91914
H         -2.01870       -0.40390       -0.99986
H         -2.00784       -1.68074        0.30273
H         -0.77123        1.06729        0.53686
H         -2.38429        0.55991        1.20172
H         -0.83546       -0.16480        1.81982
H         -0.25206       -1.23450       -3.24204
H         -0.74908       -2.95834       -3.42703
H         -1.89125       -1.77975       -2.72592
H          2.86685        3.18620       -0.33553
C          3.44619        2.01540        1.36947
C          2.54231        2.21081        0.09187
C          3.71723        3.22180        2.34054
H          3.04741        1.17179        1.96319
H          4.46045        1.71684        1.06469
H          4.43076        2.83836        3.10631
H          4.23679        4.07286        1.84027
C          2.53111        3.77324        3.13800
H          1.53768        2.39995        0.50328
H          1.88861        4.42658        2.51489
H          1.93972        2.94879        3.58269
H          2.91717        4.39575        3.98386
C          0.12379        0.60821       -5.21024
C         -0.13610        1.73171       -6.01387
C          0.49312        2.78365       -5.40410
C          1.05635        2.27364       -4.25336
N          0.91579        0.93597       -4.12861
C          1.71380        2.90059       -3.18557
N          0.95352        2.64218       -1.90706
C         -0.09107        3.69951       -1.67959
H         -0.72783        1.77877       -6.93423
H         -0.27433       -0.36099       -5.41812
H          0.53500        3.78621       -5.76042
H          2.66454        2.39091       -3.26309
H          1.89863        3.96700       -3.45237
C         -1.06312        3.74379       -2.88399
C         -1.02265        3.44122       -0.47596
C          0.61879        5.04180       -1.34312
H         -2.00818        4.27988       -2.68231
H         -0.61287        4.23955       -3.75468
H         -1.35205        2.68962       -3.13166
H         -0.49665        3.39334        0.49672
H         -1.71482        4.31660       -0.39141
H         -1.68959        2.57443       -0.63791
H          1.12206        4.94356       -0.35349
H          1.42567        5.34609       -2.03037
H         -0.09523        5.88300       -1.29337
Mg         0.07624        0.91946       -1.77987
C          2.40875       -2.20958       -3.76197
C          3.03430       -3.43434       -3.58786
C          3.64672       -3.39055       -2.35928
C          3.36903       -2.13496       -1.84383
N          2.61841       -1.40868       -2.68912
C          3.91396       -1.55967       -0.59647
N          3.87233       -0.09666       -0.72829
C          5.06064        0.46100       -1.52399
H          3.06993       -4.26020       -4.29315
H          1.85869       -1.91896       -4.64299
H          4.27300       -4.16469       -1.91796
H          4.93282       -1.94832       -0.40649
H          3.29727       -1.89126        0.25955
C          5.11699       -0.02753       -2.99220
C          4.99724        1.98511       -1.59674
C          6.43057        0.16157       -0.85497
H          4.17980        0.22361       -3.52948
H          5.93462        0.47770       -3.54680
H          5.32954       -1.11351       -3.06546
H          5.26513        2.53548       -0.67731
H          4.46071        2.61187       -2.30571
H          3.94534        2.02884       -1.73494
H          6.45676        0.56033        0.18132
H          6.70451       -0.90986       -0.83465
H          7.24462        0.66289       -1.42861
