110
speciation2174.ct
Na         1.07172        0.06805        0.01501
Mg         4.41414        1.21788       -1.45220
C         -1.85156       -0.23738        1.25783
C         -1.81015       -0.75834       -0.98827
O         -1.24828        0.06805        0.01501
C         -1.25276        0.61859        2.36249
C         -1.21971       -0.42520       -2.35161
H         -2.93674        0.01433        1.21488
H         -1.72176       -1.31050        1.52679
H         -1.63256       -1.83646       -0.77269
H         -2.90450       -0.56222       -1.06856
H         -0.13910       -0.64528       -2.37707
H         -1.71725       -1.04330       -3.12965
H         -1.37198        0.64744       -2.59039
H         -1.34856        1.69547        2.10885
H         -1.80027        0.42713        3.31114
H         -0.18258        0.36442        2.50817
H          2.20450        0.85095       -3.12150
C          3.03037        2.55126       -4.08503
C          2.78275        1.73984       -2.81108
C          3.84766        1.76075       -5.12230
H          2.04761        2.80545       -4.54111
H          3.53175        3.50152       -3.81712
H          4.81965        1.44309       -4.69688
H          3.29563        0.84286       -5.42040
C          4.11089        2.60587       -6.37223
H          2.11518        2.32045       -2.14221
H          3.15080        2.89146       -6.85297
H          4.66876        3.52818       -6.10066
H          4.71513        2.02710       -7.09830
C          4.49530        3.02783        3.40097
C          3.99669        3.66098        2.27255
C          3.74977        2.68392        1.34087
C          4.11857        1.50376        1.94662
N          4.55118        1.68247        3.21839
C          4.07848        0.16678        1.35225
N          3.44172        0.06805        0.01501
C          3.57764       -1.37265       -0.45642
H          3.82293        4.72382        2.12301
H          4.77617        3.53701        4.31213
H          3.35555        2.81370        0.34029
H          3.52336       -0.43596        2.09211
H          5.14253       -0.14691        1.30892
C          3.15846       -2.42204        0.62295
C          2.66272       -1.62936       -1.66039
C          5.01828       -1.70033       -0.91126
H          2.13592       -2.21134        1.00360
H          3.16962       -3.45174        0.20420
H          3.86790       -2.45752        1.47708
H          2.95251       -1.00729       -2.51776
H          2.74519       -2.68530       -2.00136
H          1.60639       -1.47830       -1.38924
H          5.33921       -1.00492       -1.71247
H          5.74645       -1.66867       -0.07798
H          5.06901       -2.73426       -1.31970
Na         5.12945       -0.16213        4.62198
Mg         1.31596       -3.30609        8.20653
C          7.27254        1.22304       -1.19938
C          6.51777        2.77929       -2.82629
O          6.25140        1.55749       -2.13909
C          7.65104        2.32484       -0.19675
C          7.69979        2.67879       -3.80876
H          6.91154        0.36401       -0.60757
H          8.17896        0.84869       -1.72614
H          5.64499        3.05592       -3.42585
H          6.64502        3.63618       -2.13475
H          7.49119        1.92641       -4.59922
H          7.86258        3.66324       -4.29829
H          8.64665        2.41047       -3.29681
H          6.74494        2.68425        0.33277
H          8.37097        1.91962        0.54420
H          8.16502        3.17545       -0.69180
H         -0.42691       -5.08973        9.19152
C          1.49228       -6.08054        8.83054
C          0.36919       -5.10071        8.41764
C          2.16028       -5.84724       10.21692
H          1.03641       -7.08985        8.86977
H          2.28617       -6.08779        8.05031
H          1.38744       -5.80824       11.01383
H          2.80716       -6.72945       10.42215
C          3.07603       -4.62519       10.32862
H         -0.06336       -5.39694        7.43897
H          3.91353       -4.68945        9.60150
H          2.52870       -3.67595       10.19955
H          3.54030       -4.61818       11.35052
C          1.74722       -0.34996        8.34463
C          2.62828        0.65089        7.98840
C          3.71017        0.04074        7.39790
C          3.43657       -1.31576        7.42212
N          2.23953       -1.55546        8.00060
C          4.30817       -2.38966        6.85598
N          5.54673       -1.90172        6.21702
C          6.50768       -3.01258        5.91263
H          2.48484        1.71506        8.12801
H          0.78123       -0.20270        8.80278
H          4.58531        0.52697        6.99021
H          3.70185       -2.96400        6.12498
H          4.52428       -3.03046        7.73454
C          5.91286       -3.98904        4.87385
C          7.79932       -2.40651        5.34383
C          6.91845       -3.83607        7.17405
H          5.59231       -3.44588        3.96354
H          6.66179       -4.76150        4.58669
H          5.04441       -4.54013        5.29272
H          8.27161       -1.73338        6.09106
H          8.53379       -3.21371        5.10721
H          7.59572       -1.83887        4.41613
H          7.35584       -3.18384        7.95881
H          6.08350       -4.41822        7.61618
H          7.67890       -4.60470        6.90843
