81
speciation354.ct
Na         5.07463        4.40732        3.08916
Mg         3.85384        2.71345       -2.97986
C          7.48422        5.00661        4.71785
C          6.71743        6.93943        3.63590
O          6.78624        5.52492        3.59481
C          6.76200        5.21380        6.05483
C          6.10360        7.46539        2.34986
H          7.60238        3.91500        4.55606
H          8.51988        5.41541        4.76800
H          6.09636        7.30264        4.48155
H          7.74347        7.37233        3.70256
H          5.05925        7.10334        2.25462
H          6.09694        8.57737        2.37175
H          6.70376        7.12600        1.47617
H          5.72876        4.81217        6.00177
H          7.31440        4.68243        6.85911
H          6.72903        6.28606        6.34011
H          2.89849        0.75974       -4.59373
C          2.71676       -0.35141       -2.78525
C          3.45575        0.68553       -3.64063
C          1.27900        0.07104       -2.45743
H          2.68325       -1.30834       -3.35592
H          3.28118       -0.52337       -1.84519
H          1.29809        1.00332       -1.85795
H          0.70888        0.25873       -3.39429
C          0.55437       -1.01848       -1.66352
H          4.46268        0.28200       -3.87631
H          0.45689       -1.94414       -2.27205
H          1.10915       -1.25680       -0.73130
H         -0.46465       -0.67144       -1.38999
C          2.44058        2.75354        3.45422
C          1.51696        1.88821        2.90216
C          1.93229        1.64060        1.60959
C          3.08721        2.38405        1.42139
N          3.40332        3.05900        2.55855
C          3.86239        2.45262        0.12064
N          3.03541        2.88763       -1.03988
C          2.41545        4.23967       -0.98398
H          0.63465        1.48523        3.38704
H          2.40055        3.14364        4.46309
H          1.43335        1.01103        0.88719
H          4.75144        3.10151        0.23911
H          4.23119        1.42664       -0.08894
C          3.48173        5.32696       -0.76761
C          1.72940        4.45146       -2.33990
C          1.31362        4.39186        0.09799
H          4.26649        5.25036       -1.53941
H          3.02862        6.33885       -0.82183
H          3.95334        5.22875        0.23394
H          0.93386        3.68689       -2.48549
H          1.26217        5.45790       -2.39439
H          2.45848        4.35720       -3.16929
H          0.54461        3.59530        0.00369
H          1.70908        4.40573        1.12787
H          0.80446        5.37409       -0.00795
Mg         8.99796        5.48249       -5.30642
C          9.24975        2.63591       -4.50439
C          8.55856        1.61793       -3.88061
C          7.34718        2.14696       -3.48646
C          7.35269        3.45888       -3.89904
N          8.51331        3.76844       -4.50969
C          6.20646        4.41047       -3.76224
N          4.98118        3.86735       -4.38320
C          4.98133        3.77086       -5.89201
H          8.89124        0.59626       -3.74715
H         10.22966        2.55356       -4.96033
H          6.54488        1.62949       -2.98159
H          6.47386        5.40110       -4.18909
H          6.02671        4.57026       -2.68697
C          5.97031        2.70933       -6.43913
C          3.57888        3.36121       -6.35201
C          5.30916        5.12655       -6.57692
H          5.81814        1.72644       -5.94908
H          5.84470        2.58014       -7.53648
H          7.02346        3.02111       -6.33745
H          2.82737        4.12390       -6.06508
H          3.54947        3.23714       -7.45902
H          3.30262        2.39564       -5.90752
H          4.59815        5.91770       -6.25916
H          6.34438        5.46832       -6.36973
H          5.23924        5.03061       -7.68503
