110
speciation2416.ct
Na         0.93435       -0.86560       -0.04702
Mg         0.11819       -0.62252       -3.84904
C          0.66548       -3.16783        2.57630
C         -1.25734       -2.09209        1.86539
O          0.01967       -2.53946        1.43857
C         -0.01507       -4.46989        3.09415
C         -1.90257       -1.32718        0.74979
H          1.69917       -3.44559        2.29351
H          0.73232       -2.49343        3.46264
H         -1.93887       -2.94643        2.07874
H         -1.19100       -1.42126        2.75646
H         -1.99902       -1.99253       -0.12922
H         -2.91105       -0.98133        1.05595
H         -1.26627       -0.45442        0.51448
H         -0.11034       -5.22949        2.29085
H          0.57937       -4.91200        3.92200
H         -1.02330       -4.28434        3.53237
H          1.01767       -0.61558       -6.46372
C          2.95144       -0.20532       -5.59017
C          1.43281       -0.04371       -5.61271
C          3.38712       -1.66915       -5.50768
H          3.39677        0.23921       -6.50967
H          3.35315        0.37086       -4.73354
H          4.49222       -1.68923       -5.39005
H          2.91307       -2.15576       -4.63959
C          3.02995       -2.47217       -6.75522
H          1.25830        1.00345       -5.93095
H          1.93166       -2.55884       -6.87606
H          3.46749       -1.99520       -7.65798
H          3.43783       -3.49807       -6.65445
C         -2.30007       -0.26560       -5.57678
C         -3.49971        0.34427       -5.29984
C         -3.43584        0.80747       -3.99256
C         -2.18142        0.47274       -3.52180
N         -1.49060       -0.16761       -4.49527
C         -1.59470        0.74110       -2.13918
N         -0.11681        0.41503       -2.02733
C          0.66742        1.70041       -2.06113
H         -4.34749        0.44456       -5.97274
H         -2.01000       -0.74061       -6.51313
H         -4.21170        1.34269       -3.45334
H         -2.18821        0.17607       -1.41112
H         -1.80934        1.80557       -1.95201
C          0.39211        2.64619       -0.85334
C          2.08462        1.27827       -1.97471
C          0.52376        2.50946       -3.35635
H          0.43306        2.09566        0.10615
H          1.15519        3.45931       -0.82319
H         -0.58222        3.16784       -0.92366
H          2.24768        0.57753       -2.79964
H          2.80552        2.11747       -2.01443
H          2.12118        0.80748       -1.00681
H          0.68192        1.84938       -4.19165
H         -0.46592        2.98007       -3.47892
H          1.30306        3.30804       -3.41195
Na         4.16630        1.28848       -0.45906
Mg         4.85347        2.77772        1.73964
C          7.61349        3.02173        2.11008
C          6.60413        5.06058        1.57646
O          6.55268        3.65164        1.40415
C          7.47671        1.50750        2.07325
C          7.82185        5.69726        0.87195
H          8.58114        3.22627        1.60338
H          7.65352        3.34647        3.17397
H          5.70052        5.49341        1.10024
H          6.59017        5.34395        2.65198
H          7.83299        5.43591       -0.20790
H          7.78582        6.80169        0.97179
H          8.78240        5.37386        1.32567
H          7.46776        1.14380        1.02349
H          8.35135        1.05481        2.59170
H          6.55200        1.18852        2.59275
H         -0.17680       -3.15217       -4.63476
C         -0.87614       -3.43713       -2.59166
C          0.04361       -2.75925       -3.62007
C         -2.37489       -3.13626       -2.74976
H         -0.72592       -4.53963       -2.63482
H         -0.55566       -3.09545       -1.58660
H         -2.91550       -3.60828       -1.89926
H         -2.54416       -2.04613       -2.69121
C         -2.98269       -3.68833       -4.03803
H          1.07871       -3.06053       -3.36605
H         -2.50108       -3.24423       -4.93137
H         -2.87830       -4.79413       -4.06994
H         -4.06566       -3.43951       -4.06652
C          2.02111        2.45227        2.63742
C          1.05057        1.50095        2.86707
C          1.57062        0.31264        2.42992
C          2.83210        0.56848        1.96785
N          3.11047        1.88128        2.08378
C          3.75547       -0.46721        1.41725
N          3.35278       -0.66875        0.02870
C          4.20108       -1.56208       -0.79590
H          0.07915        1.63993        3.32196
H          1.94481        3.49818        2.89809
H          1.10250       -0.63494        2.47178
H          3.69728       -1.39935        2.01563
H          4.78768       -0.06423        1.45911
C          4.01324       -3.01742       -0.33776
C          3.74769       -1.48071       -2.24844
C          5.69546       -1.14815       -0.80720
H          2.93384       -3.27492       -0.38079
H          4.57277       -3.70396       -1.00859
H          4.38525       -3.15325        0.69453
H          4.01718       -0.49107       -2.66901
H          4.29541       -2.21944       -2.86816
H          2.65641       -1.66269       -2.33366
H          5.80824       -0.10756       -1.19373
H          6.17486       -1.20106        0.18643
H          6.27799       -1.79878       -1.49671
