110
speciation2003.ct
Na         1.07600       -0.05811       -0.09365
Mg         1.16388        5.73967       -0.56277
C          4.09179        0.48879       -0.72228
C          3.54442        1.21721        1.49131
O          3.06317        0.80609        0.21135
C          5.16603       -0.49287       -0.21942
C          4.32466        2.54382        1.44922
H          3.59880        0.01140       -1.59120
H          4.56428        1.41720       -1.11311
H          2.66965        1.37814        2.15170
H          4.14680        0.42456        1.98420
H          3.69243        3.35539        1.03293
H          4.63773        2.83107        2.47699
H          5.25088        2.45875        0.84161
H          4.69506       -1.41445        0.17929
H          5.83969       -0.76730       -1.05887
H          5.80686       -0.03342        0.56374
H          2.17457        8.01141       -0.74066
C          0.80397        8.29911       -2.36645
C          1.76729        7.40397       -1.57648
C          0.06043        7.60399       -3.51704
H          0.04128        8.68787       -1.65934
H          1.37339        9.16789       -2.76692
H         -0.54766        6.76783       -3.11361
H         -0.63052        8.34875       -3.97217
C          0.97148        7.08329       -4.62805
H          2.62836        7.10014       -2.20724
H          1.55517        7.91392       -5.07976
H          1.66317        6.30767       -4.24238
H          0.34464        6.62522       -5.42393
C          0.53060        4.06724        1.77446
C          0.09054        2.83143        2.20393
C         -0.16658        2.09300        1.08050
C          0.14933        2.89842        0.01009
N          0.57526        4.11617        0.42609
C          0.06905        2.51616       -1.41927
N         -0.34868        1.09935       -1.61989
C         -0.36196        0.77542       -3.09608
H         -0.02952        2.49716        3.22240
H          0.80947        4.88504        2.42360
H         -0.53138        1.07823        1.04785
H          1.09908        2.66681       -1.79331
H         -0.62954        3.22242       -1.89449
C          1.01508        0.95178       -3.78059
C         -0.77414       -0.69952       -3.28558
C         -1.42075        1.63367       -3.85215
H          1.78022        0.31752       -3.28824
H          0.95737        0.65908       -4.85256
H          1.36130        2.00439       -3.78724
H         -1.77543       -0.88650       -2.85715
H         -0.81818       -0.94733       -4.37315
H         -0.04214       -1.38034       -2.80734
H         -2.42742        1.51356       -3.39974
H         -1.17185        2.71374       -3.86576
H         -1.49533        1.33782       -4.92042
Na        -2.60674        0.80875       -1.17428
Mg        -5.26819        0.63541        1.01372
C         -0.51559       -1.94958        1.84129
C          1.64498       -2.87709        1.39838
O          0.63133       -1.95372        0.98910
C         -0.23459       -1.89432        3.35581
C          1.19443       -4.34855        1.31180
H         -1.10172       -1.04739        1.58906
H         -1.17554       -2.81119        1.60400
H          2.51708       -2.76361        0.72278
H          2.02409       -2.64587        2.41534
H          0.91523       -4.61128        0.27070
H          2.02130       -5.01736        1.63621
H          0.33035       -4.55963        1.97696
H          0.43070       -1.04105        3.60344
H         -1.18940       -1.77834        3.90823
H          0.21834       -2.83845        3.72773
H         -5.83415        1.73375        3.34849
C         -4.49189        0.05703        3.77859
C         -5.64505        0.69336        3.01777
C         -3.16705        0.77382        3.50300
H         -4.71316        0.05935        4.86841
H         -4.40020       -0.99860        3.44299
H         -2.35872        0.22580        4.02760
H         -2.95370        0.75405        2.41143
C         -3.16160        2.21538        4.01131
H         -6.57309        0.11055        3.19632
H         -3.92222        2.83379        3.49565
H         -3.34268        2.23437        5.10645
H         -2.17991        2.67696        3.81262
C         -3.66222        4.78186       -1.50963
C         -4.94870        5.21231       -1.27247
C         -5.76550        4.09588       -1.28943
C         -5.00712        3.02224       -1.53348
N         -3.65012        3.38530       -1.67515
C         -5.54622        1.63445       -1.75866
N         -4.90056        0.57887       -0.94121
C         -5.40306       -0.79476       -1.23558
H         -5.25644        6.24096       -1.13173
H         -2.78935        5.41917       -1.57797
H         -6.84339        4.10104       -1.18347
H         -5.35562        1.43649       -2.83002
H         -6.64004        1.66064       -1.58438
C         -5.09618       -1.23514       -2.68277
C         -4.69348       -1.76545       -0.27350
C         -6.92678       -0.91943       -0.97606
H         -4.01032       -1.17874       -2.88297
H         -5.42462       -2.28549       -2.84249
H         -5.63300       -0.62099       -3.43225
H         -4.90942       -1.49931        0.78357
H         -5.04517       -2.80867       -0.43637
H         -3.59383       -1.73810       -0.42308
H         -7.17226       -0.64022        0.07125
H         -7.52772       -0.29189       -1.66407
H         -7.26511       -1.96512       -1.14434
