68
speciation72.ct
Na         1.07996       -0.04139       -0.04352
Mg         8.10741       -3.30301       -1.41949
C         -1.72629        1.19864       -0.52732
C         -1.84441       -0.42360        1.17771
O         -1.24004       -0.04139       -0.04352
C         -1.42159        2.39710        0.38072
C         -1.25649       -1.74604        1.64964
H         -1.21889        1.38059       -1.49824
H         -2.81292        1.13641       -0.75611
H         -1.66527        0.31338        1.98726
H         -2.93582       -0.57697        1.02420
H         -0.17770       -1.62488        1.87227
H         -1.77140       -2.07233        2.57871
H         -1.38173       -2.52857        0.87293
H         -0.33806        2.43598        0.61904
H         -1.71037        3.33413       -0.14005
H         -2.01027        2.35623        1.31984
C          5.58141       -1.17403       -3.33168
C          5.95660        0.02935       -3.90077
C          5.41450        1.02874       -3.10817
C          4.74137        0.38539       -2.09002
N          4.85247       -0.93895       -2.23459
C          3.98452        1.00654       -0.95292
N          3.44996       -0.04139       -0.04352
C          3.84141        0.05616        1.37516
H          6.55592        0.15962       -4.79177
H          5.83222       -2.16165       -3.70274
H          5.51166        2.09660       -3.25744
H          3.14172        1.60509       -1.35490
H          4.67623        1.70423       -0.43956
C          3.40979        1.39396        2.01448
C          3.11342       -1.07079        2.12663
C          5.35480       -0.14138        1.49984
H          2.31008        1.52789        1.92533
H          3.67650        1.40437        3.09421
H          3.90510        2.26667        1.54604
H          3.32670       -2.05284        1.67279
H          3.41146       -1.09863        3.19711
H          2.01678       -0.92200        2.07605
H          5.61180       -1.05745        0.94124
H          5.92941        0.69263        1.05000
H          5.66525       -0.22965        2.56299
Na         3.88140       -1.93478       -0.77956
C          2.41992       -4.38896        0.34333
C          2.61132       -5.74259        0.51347
C          3.85402       -6.03829       -0.01631
C          4.36852       -4.84122       -0.47248
N          3.49071       -3.85656       -0.26257
C          5.71496       -4.60830       -1.08642
N          6.50238       -3.59925       -0.34338
C          6.97388       -3.92113        1.03004
H          1.92262       -6.42934        0.98422
H          1.55646       -3.81454        0.65398
H          4.33497       -7.00568       -0.04300
H          6.28239       -5.55229       -1.20360
H          5.54554       -4.21413       -2.11201
C          7.71985       -5.26151        1.07078
C          7.96811       -2.82039        1.46043
C          5.81907       -3.93685        2.05388
H          8.57985       -5.24597        0.36722
H          8.10349       -5.45446        2.09668
H          7.05094       -6.10744        0.80879
H          7.51354       -1.81816        1.46429
H          8.33627       -3.00925        2.49230
H          8.83888       -2.78037        0.77501
H          5.26062       -2.99163        2.01456
H          5.12026       -4.77405        1.90126
H          6.20576       -4.05675        3.08592
