95
speciation1819.ct
Na         1.17902        1.61791        0.41762
Mg         1.62012        6.01573       -3.59342
C          0.02293        8.24624       -3.95566
C          2.09142        8.39141       -5.07761
O          1.39981        7.91164       -3.94070
C         -0.76743        7.62540       -5.11530
C          3.54968        7.96544       -5.00449
H         -0.40991        7.85486       -3.01078
H         -0.11603        9.34910       -3.92440
H          1.68553        7.98239       -6.02498
H          2.06498        9.50422       -5.09038
H          3.62410        6.85740       -5.03725
H          4.10334        8.38561       -5.87170
H          4.01279        8.33830       -4.06825
H         -0.60750        6.52746       -5.14747
H         -1.84933        7.82895       -4.97252
H         -0.48271        8.07351       -6.08914
H          6.68381        2.89927       -0.42533
C          5.97777        0.86249       -0.63421
C          5.85696        2.29181       -0.00651
C          5.75156        0.88076       -2.14387
H          6.97714        0.42993       -0.41105
H          5.27071        0.13968       -0.20305
H          4.76789        1.34371       -2.35346
H          6.54914        1.49004       -2.61417
C          5.76757       -0.52688       -2.75785
H          6.06513        2.18878        1.08162
H          6.73442       -1.03718       -2.56864
H          4.96363       -1.17077       -2.34934
H          5.60571       -0.45124       -3.85406
C         -1.86709        0.68534        0.34118
C         -2.52402       -0.52471        0.20412
C         -1.56274       -1.50125        0.13652
C         -0.36185       -0.84184        0.24080
N         -0.54668        0.47747        0.35256
C          0.99447       -1.43792        0.21281
N          1.97447       -0.36738        0.42698
C          2.76036       -0.39730        1.66977
H         -3.60669       -0.67852        0.16614
H         -2.34965        1.65057        0.41476
H         -1.70976       -2.56550        0.01209
H          1.15902       -1.88683       -0.79106
H          1.07026       -2.24380        0.96484
C          3.70101       -1.61835        1.69291
C          3.58165        0.89056        1.68163
C          1.85739       -0.37343        2.91603
H          4.33797       -1.65863        0.78696
H          4.36040       -1.57466        2.58658
H          3.13015       -2.56588        1.75186
H          2.99604        1.74313        1.98681
H          4.47171        0.84207        2.34439
H          3.78704        1.19594        0.65627
H          1.15608        0.48621        2.85214
H          1.25142       -1.29473        3.00561
H          2.47135       -0.25920        3.83413
Na         3.23152       -0.49892       -1.26161
Mg         3.94867        3.64926       -0.08519
H          3.97192        5.90740       -1.46255
C          6.09801        5.95340       -1.03155
C          4.64646        5.65826       -0.61562
C          6.28426        7.41438       -1.49188
H          6.76719        5.74922       -0.16601
H          6.37500        5.27566       -1.86676
H          5.62856        7.61419       -2.36703
H          6.00238        8.11824       -0.67712
C          7.73062        7.70472       -1.90237
H          4.38858        6.32578        0.23279
H          8.41493        7.57031       -1.03780
H          8.04386        7.03030       -2.72746
H          7.82063        8.75422       -2.25794
C          2.29114        3.19860       -4.15849
C          2.37772        1.93866       -3.61327
C          1.95982        2.05033       -2.30554
C          1.65701        3.38118       -2.10083
N          1.84610        4.07096       -3.23719
C          1.13478        4.02272       -0.85761
N          1.86109        3.64843        0.38097
C          1.24219        4.31811        1.59437
H          2.71165        1.03932       -4.11283
H          2.54849        3.47010       -5.17374
H          1.90057        1.25162       -1.59707
H          0.09549        3.65419       -0.80054
H          1.13791        5.11701       -1.02614
C         -0.28675        4.03610        1.69433
C          1.84966        3.78575        2.90663
C          1.46298        5.84737        1.59167
H         -0.47594        2.94227        1.68637
H         -0.71016        4.44600        2.63556
H         -0.86692        4.51122        0.87826
H          2.95157        3.91752        2.92617
H          1.42567        4.32600        3.78278
H          1.56613        2.73241        3.07965
H          2.54276        6.08844        1.60925
H          0.98680        6.34571        0.72646
H          0.99787        6.30027        2.49672
