80
speciation945.ct
Na         3.23301        4.90634        3.11261
Mg         4.13972        2.55416       -2.66627
H          5.77775        0.56930       -1.47347
C          6.70916        1.89123       -0.05198
C          6.01462        1.65318       -1.44659
C          5.87108        1.46512        1.17961
H          7.65802        1.29731       -0.00338
H          7.00142        2.95976        0.04331
H          4.88967        1.97239        1.14314
H          5.70651        0.36180        1.13207
C          6.56153        1.83400        2.52351
H          6.81455        1.81938       -2.20013
H          7.43100        1.19424        2.81259
H          6.08870        2.57816        3.19740
H          7.01601        2.80203        2.38624
C          5.25642        6.16637        1.13578
C          5.61661        6.31543       -0.18273
C          4.72663        5.52437       -0.90660
C          3.88113        4.97742       -0.02780
N          4.17113        5.37303        1.24875
C          2.69880        4.11116       -0.32111
N          3.07071        2.82896       -0.93716
C          1.92944        1.90839       -1.17200
H          6.43973        6.90850       -0.57507
H          5.73081        6.67870        1.97997
H          4.73252        5.40357       -1.98910
H          2.18497        3.93157        0.65327
H          2.03617        4.70715       -0.97880
C          0.81503        2.58035       -1.99393
C          2.46692        0.69081       -1.94699
C          1.31687        1.40081        0.12988
H          1.25075        3.00276       -2.88824
H          0.02970        1.85967       -2.30195
H          0.31755        3.40681       -1.44567
H          3.25836        0.18241       -1.36485
H          1.65674       -0.03306       -2.17145
H          2.90444        0.98475       -2.91472
H          2.07215        0.90453        0.76786
H          0.82596        2.21374        0.71270
H          0.50604        0.66117       -0.09569
Na         2.27713       -1.24454       -6.11541
Mg         3.89302        0.02458       -8.47634
H          4.19676       -0.01877      -11.06354
C          3.71729        2.07625      -10.69428
C          3.54544        0.59357      -10.40430
C          5.14380        2.54062      -10.41240
H          3.46623        2.25747      -11.76274
H          3.00663        2.65039      -10.06158
H          5.38689        2.37111       -9.34051
H          5.85724        1.96296      -11.03961
C          5.29005        4.02509      -10.73523
H          2.48748        0.32098      -10.60311
H          5.06171        4.20820      -11.80768
H          4.59482        4.62556      -10.10999
H          6.33008        4.35329      -10.53168
C          2.28914        3.36691       -5.12975
C          1.85791        3.09172       -6.41746
C          2.66617        2.09422       -6.88112
C          3.53300        1.76534       -5.84379
N          3.29608        2.53439       -4.72855
C          4.64187        0.75585       -5.96699
N          4.23208       -0.53047       -6.59563
C          5.34968       -1.46751       -6.82985
H          1.05512        3.57555       -6.95613
H          1.82000        4.13293       -4.52514
H          2.61277        1.64335       -7.85979
H          5.37032        1.25174       -6.64478
H          5.08556        0.63570       -4.96680
C          6.16390       -1.72392       -5.54248
C          4.69955       -2.72821       -7.35341
C          6.32946       -0.95349       -7.91428
H          5.50903       -2.07955       -4.71234
H          6.96400       -2.48027       -5.71553
H          6.68716       -0.80692       -5.21206
H          4.16757       -2.55079       -8.30113
H          5.50130       -3.52925       -7.58245
H          4.00706       -3.18787       -6.62570
H          5.81400       -0.77967       -8.88112
H          6.84393       -0.01959       -7.61516
H          7.12899       -1.70761       -8.09734
