81
speciation375.ct
Na         1.00597       -0.03785       -0.09237
Mg         4.94151        4.42107        1.68435
C         -1.76652       -0.03191       -1.44016
C         -1.80010        1.03951        0.69255
O         -1.31403       -0.03785       -0.09237
C         -1.52349        1.27126       -2.21346
C         -3.29645        0.92522        0.99173
H         -1.20325       -0.83190       -1.96505
H         -2.83344       -0.33480       -1.49719
H         -1.27336        1.00246        1.66901
H         -1.55673        2.02611        0.25472
H         -3.50985       -0.02420        1.52618
H         -3.60805        1.77576        1.63466
H         -3.89805        0.96705        0.06100
H         -0.45342        1.56026       -2.15451
H         -1.79934        1.12117       -3.27829
H         -2.16094        2.09548       -1.83190
H          4.18078        6.79004        0.79710
C          5.93527        6.30699       -0.41304
C          5.17790        6.31680        0.90879
C          5.19221        5.50512       -1.48112
H          6.06989        7.35688       -0.76237
H          6.93839        5.85966       -0.24170
H          5.04810        4.46385       -1.12561
H          4.19731        5.96510       -1.66792
C          5.98071        5.47325       -2.78823
H          5.76823        6.89808        1.64883
H          6.14554        6.50456       -3.16760
H          6.96538        4.98264       -2.63103
H          5.41600        4.89852       -3.55174
C          2.85194       -3.23587        3.31466
C          2.23572       -2.02882        3.55978
C          2.50979       -1.19168        2.48552
C          3.26796       -1.86746        1.61714
N          3.52661       -3.17408        2.08890
C          3.80713       -1.39990        0.29117
N          3.37597       -0.03785       -0.09237
C          3.79659        0.37107       -1.45950
H          1.64458       -1.79904        4.43620
H          2.82493       -4.10638        3.95858
H          2.16392       -0.17322        2.37409
H          3.43427       -2.13844       -0.44259
H          4.91196       -1.45726        0.35344
C          3.13012       -0.51097       -2.54095
C          3.33800        1.82181       -1.66120
C          5.33151        0.32205       -1.64630
H          2.02637       -0.51094       -2.42005
H          3.37505       -0.13354       -3.55698
H          3.49331       -1.55825       -2.50611
H          3.81073        2.47600       -0.89939
H          3.62688        2.19248       -2.66956
H          2.23581        1.90379       -1.55574
H          5.83962        0.96926       -0.90698
H          5.72945       -0.70995       -1.55763
H          5.60845        0.68034       -2.66190
Mg         4.03929        1.31184        1.21088
C          0.77863        3.46398        1.30082
C          0.17197        3.44347        2.53878
C          1.15612        3.19095        3.47585
C          2.31809        3.06209        2.83484
N          2.15459        3.22509        1.44101
C          3.62370        2.76836        3.50709
N          4.70262        2.66152        2.51413
C          6.02560        2.25544        3.05276
H         -0.88252        3.59515        2.73123
H          0.27932        3.63704        0.35805
H          1.01453        3.10486        4.54638
H          3.49051        1.81142        4.04841
H          3.83282        3.58716        4.22595
C          5.97911        0.83525        3.65894
C          7.01682        2.24411        1.87815
C          6.54972        3.25670        4.10664
H          5.59990        0.10595        2.91123
H          6.99624        0.51672        3.97546
H          5.33842        0.78954        4.56206
H          7.08334        3.25098        1.41169
H          8.03391        1.94935        2.21837
H          6.69040        1.52048        1.10675
H          6.62395        4.27788        3.67464
H          5.89761        3.29252        5.00254
H          7.56067        2.95300        4.45729
