95
speciation1688.ct
Na         7.22411        1.86933       -1.50878
Mg         2.20701        4.43657       -0.51000
C          3.62732        6.40478        0.91806
C          1.96397        5.29472        2.23236
O          2.39510        5.68511        0.93791
C          4.78019        5.85135        1.77974
C          1.51874        6.49894        3.06262
H          3.98334        6.40721       -0.12937
H          3.44289        7.46966        1.17287
H          1.06842        4.66025        2.12122
H          2.71532        4.67571        2.76775
H          0.71409        7.04382        2.52519
H          1.12981        6.15610        4.04424
H          2.36500        7.19107        3.24982
H          5.00106        4.79598        1.53136
H          5.69688        6.44989        1.58940
H          4.56126        5.93835        2.86476
H          1.47287        6.75271       -1.80825
C         -0.35322        5.69917       -2.26674
C          1.14579        5.70753       -2.00978
C         -1.15653        6.26109       -1.10027
H         -0.56422        6.32676       -3.16502
H         -0.66808        4.66450       -2.48845
H         -0.91173        5.71611       -0.16435
H         -0.90412        7.33724       -0.97120
C         -2.64918        6.11691       -1.38844
H          1.59424        5.41296       -2.98199
H         -2.91335        6.60093       -2.35427
H         -2.91615        5.03911       -1.44453
H         -3.23937        6.58999       -0.57791
C          6.34626       -0.31145        0.29211
C          5.45277       -0.81200        1.20314
C          4.44388        0.12695        1.30328
C          4.74474        1.14812        0.42282
N          5.94140        0.88930       -0.16377
C          3.91531        2.42184        0.23621
N          2.71895        2.45724       -0.68120
C          1.58209        1.53296       -0.38533
H          5.51876       -1.74363        1.75302
H          7.28024       -0.79074        0.00038
H          3.57734        0.06605        1.96101
H          3.62324        2.80246        1.24167
H          4.60936        3.16764       -0.14250
C          0.91916        1.87727        0.96119
C          0.63265        1.76384       -1.51716
C          1.93596        0.02316       -0.39663
H          0.59522        2.91675        0.93213
H         -0.00032        1.22233        1.06514
H          1.58455        1.67221        1.76643
H          1.21400        1.57027       -2.43293
H         -0.24765        1.08471       -1.50082
H          0.30957        2.81810       -1.49999
H          2.95049       -0.08807       -0.67425
H          1.85638       -0.45071        0.60135
H          1.33223       -0.59257       -1.09815
Na         2.12373        4.84092       -5.51113
Mg         3.05278        2.60255       -2.75674
H          4.24307        4.97885       -3.75032
C          5.60492        4.96967       -2.11184
C          4.24464        4.59578       -2.70702
C          6.71226        4.31231       -2.91346
H          5.75080        6.07655       -2.14161
H          5.65941        4.68837       -1.04833
H          6.49519        3.23213       -2.99169
H          6.72158        4.73993       -3.93957
C          8.07403        4.51906       -2.25798
H          3.55740        5.24812       -2.15517
H          8.33034        5.59801       -2.20164
H          8.07529        4.09677       -1.22951
H          8.84409        3.99273       -2.85804
C          4.42118       -0.15326       -2.85875
C          5.37649       -0.54741       -3.74092
C          5.42820        0.42269       -4.72253
C          4.43488        1.32344       -4.40260
N          3.96814        1.06664       -3.19024
C          3.79480        2.43891       -5.26192
N          2.45865        2.86766       -4.72865
C          1.24134        2.15294       -5.30654
H          5.95664       -1.45167       -3.63133
H          4.17961       -0.75643       -2.01048
H          6.08611        0.40162       -5.57321
H          3.68691        2.02560       -6.28610
H          4.50858        3.29243       -5.34527
C          1.26387        0.61664       -5.08475
C         -0.02030        2.78619       -4.67964
C          1.02047        2.37580       -6.83353
H          1.37342        0.29820       -4.04006
H          0.31196        0.16226       -5.44770
H          2.08568        0.14864       -5.66396
H         -0.10333        3.86117       -4.95730
H         -0.96167        2.27789       -5.01599
H         -0.03441        2.77451       -3.61315
H          0.83700        3.44329       -7.08166
H          1.83624        1.98864       -7.46778
H          0.09523        1.83110       -7.15741
