68
speciation145.ct
Na         1.24198        1.71863       -0.22895
Mg         3.31929        0.00092       -1.76715
C          4.89591        1.37076       -3.73106
C          3.80352       -0.56015       -4.50006
O          4.34016        0.10896       -3.38508
C          6.10263        1.24140       -4.68679
C          3.02371       -1.79011       -4.05984
H          4.14120        2.07886       -4.14294
H          5.27808        1.81883       -2.79065
H          3.14322        0.09200       -5.11673
H          4.64539       -0.94317       -5.11166
H          2.88067       -2.45537       -4.93876
H          2.02702       -1.50688       -3.66246
H          3.58844       -2.35012       -3.28432
H          6.57354        0.23767       -4.61046
H          6.88386        1.99619       -4.45584
H          5.77370        1.39845       -5.73728
C         -1.72397        0.64687        0.20184
C         -2.31687       -0.59744        0.20567
C         -1.29792       -1.52264        0.05836
C         -0.12154       -0.79263       -0.00930
N         -0.39514        0.51406        0.04154
C          1.28936       -1.31201       -0.12028
N          2.28267       -0.19709       -0.05869
C          3.20869       -0.19295        1.11533
H         -3.37815       -0.79587        0.29388
H         -2.23538        1.59586        0.28678
H         -1.41424       -2.59787        0.01223
H          1.40307       -1.86523       -1.07318
H          1.43294       -2.03625        0.70685
C          4.07235       -1.46403        1.20533
C          4.24756        0.94607        0.89122
C          2.43116       -0.09183        2.47663
H          4.65633       -1.60795        0.27458
H          4.78746       -1.35965        2.05579
H          3.47197       -2.36955        1.40466
H          3.84531        1.93788        0.70945
H          4.95216        1.03699        1.74551
H          4.84494        0.74167       -0.02551
H          1.59838        0.61745        2.56086
H          1.89735       -1.03292        2.69899
H          3.13370        0.11423        3.31396
Na         3.40560        2.89059       -1.11101
C          4.14090        4.89684       -3.43389
C          3.45365        5.99031       -3.92159
C          2.26987        6.07157       -3.21033
C          2.29377        5.03253       -2.30922
N          3.43316        4.33462       -2.44312
C          1.23256        4.72526       -1.27201
N          1.76223        3.82296       -0.22297
C          1.37397        4.14872        1.17188
H          3.78398        6.66005       -4.70126
H          5.10584        4.53894       -3.76552
H          1.49459        6.81792       -3.31499
H          0.31788        4.30608       -1.74281
H          0.95807        5.70170       -0.84286
C         -0.14698        3.93880        1.31412
C          2.10966        3.20022        2.09028
C          1.78876        5.55114        1.63813
H         -0.41006        2.88293        1.11784
H         -0.49836        4.19668        2.33260
H         -0.70211        4.56356        0.58395
H          3.19630        3.42717        2.14920
H          1.68987        3.15260        3.11533
H          1.99977        2.25536        1.61224
H          2.88182        5.68664        1.48457
H          1.23594        6.36301        1.13984
H          1.57931        5.63940        2.72844
