66
speciation217.ct
Na         7.32188       -4.02895       -2.37165
Mg         2.40506        0.16461       -2.44721
H          2.92448       -0.05081        0.24695
C          0.91222       -0.83248        0.56936
C          1.92555        0.08913       -0.19851
C          1.19800       -2.32955        0.51828
H          0.89982       -0.52055        1.63376
H         -0.14024       -0.72649        0.25675
H          0.40882       -2.85418        1.10285
H          1.12640       -2.70391       -0.51537
C          2.54776       -2.65703        1.13550
H          1.60329        1.09036        0.09612
H          3.36657       -2.20625        0.54291
H          2.58140       -2.26143        2.17350
H          2.69327       -3.75431        1.15605
C          2.39784       -2.96951       -2.67603
C          3.14163       -4.10297       -2.40954
C          4.39703       -3.68558       -2.08570
C          4.39298       -2.31414       -2.16592
N          3.14985       -1.84710       -2.52157
C          5.59123       -1.48147       -1.74612
N          6.87994       -1.91887       -2.36528
C          8.09725       -1.16446       -1.92794
H          2.79857       -5.13334       -2.40698
H          1.34696       -2.98170       -2.89181
H          5.21571       -4.32842       -1.77577
H          5.66370       -1.62949       -0.65057
H          5.39670       -0.41386       -1.94697
C          8.13682       -0.91763       -0.39918
C          9.37566       -1.96299       -2.28527
C          8.15809        0.17280       -2.67918
H          8.09343       -1.88312        0.15107
H          9.07417       -0.39551       -0.10768
H          7.30119       -0.27052       -0.06377
H          9.43210       -2.19167       -3.36947
H         10.28526       -1.37257       -2.01925
H          9.43521       -2.91555       -1.71559
H          8.17779       -0.01220       -3.77611
H          7.28315        0.80299       -2.43278
H          9.07118        0.74209       -2.40306
Mg        -0.32304        0.06539       -4.24817
C          4.83567        1.11540       -4.27264
C          4.92028        2.07836       -5.26516
C          3.67158        2.63272       -5.38113
C          2.87928        1.97299       -4.46728
N          3.58270        1.06398       -3.76363
C          1.41589        2.22781       -4.29825
N          0.80326        1.33025       -3.28937
C         -0.09116        2.09927       -2.35951
H          5.78863        2.34323       -5.85483
H          5.64934        0.48179       -3.97714
H          3.36225        3.41669       -6.06429
H          0.88174        2.09564       -5.26114
H          1.35092        3.30120       -4.04028
C         -1.19847        2.92134       -3.07368
C         -0.82836        1.05828       -1.52176
C          0.71623        3.11681       -1.48618
H         -1.82158        2.27101       -3.72158
H         -1.86362        3.39375       -2.31344
H         -0.79304        3.74342       -3.69582
H         -0.22519        0.14785       -1.53568
H         -1.08981        1.42656       -0.50509
H         -1.76018        0.70613       -2.01236
H          1.65125        2.72459       -1.07066
H          1.04387        4.00393       -2.06450
H          0.08121        3.52692       -0.66918
