83
speciation262.ct
Na        -3.05338       -5.34203        1.51374
Mg        -0.73145        0.35242       -0.56294
C         -5.02222       -5.08066       -0.88783
C         -6.07319       -6.59026        0.61346
O         -4.92303       -5.76925        0.35119
C         -6.28799       -4.21956       -1.05550
C         -6.25466       -7.76015       -0.36690
H         -4.17649       -4.39207       -0.92755
H         -4.88223       -5.76834       -1.74734
H         -6.00919       -7.04051        1.61180
H         -6.99877       -5.97984        0.67057
H         -5.40340       -8.46650       -0.28656
H         -7.19149       -8.30622       -0.11754
H         -6.35565       -7.41826       -1.41680
H         -6.42131       -3.54917       -0.18078
H         -6.20224       -3.60359       -1.97419
H         -7.19620       -4.84709       -1.18013
C         -0.62087       -3.39694        2.74446
C          0.22326       -2.32771        2.51752
C         -0.12663       -1.81467        1.30246
C         -1.15995       -2.59283        0.82952
N         -1.48623       -3.58529        1.69598
C         -1.80103       -2.35880       -0.49556
N         -2.17626       -0.95091       -0.73874
C         -3.25343       -0.33108        0.05418
H          1.01717       -1.95138        3.15461
H         -0.57716       -4.02040        3.62432
H          0.31722       -0.96823        0.80331
H         -1.06252       -2.62564       -1.27573
H         -2.64816       -3.03084       -0.63062
C         -2.81303       -0.08833        1.51469
C         -3.51870        1.04851       -0.57694
C         -4.53939       -1.16806       -0.00493
H         -1.86272        0.49175        1.53728
H         -3.58188        0.48919        2.06816
H         -2.67281       -1.03024        2.07462
H         -3.85725        0.94526       -1.62881
H         -4.29852        1.60164       -0.01041
H         -2.59137        1.66301       -0.57563
H         -4.82762       -1.34152       -1.06511
H         -4.39922       -2.14920        0.49194
H         -5.37283       -0.64428        0.50853
Na        -2.83321       -0.94880       -2.77357
C         -1.05685       -7.54542        2.08814
C         -3.06624       -7.92523        3.14428
O         -2.19134       -6.91945        2.66296
C         -0.04405       -6.50548        1.65060
C         -4.21555       -7.30004        3.91297
H         -0.53687       -8.16723        2.85488
H         -1.33385       -8.17549        1.21293
H         -3.46222       -8.55409        2.31321
H         -2.53658       -8.57510        3.88110
H         -4.80456       -6.64557        3.25646
H         -4.86801       -8.10229        4.32354
H         -3.83148       -6.67686        4.74356
H          0.24736       -5.88885        2.52206
H          0.87017       -7.00386        1.26723
H         -0.47138       -5.87080        0.84788
C          0.35871        3.12234       -0.35938
C          1.56385        3.79678       -0.31732
C          2.55322        2.83973       -0.39604
C          1.91334        1.61962       -0.46958
N          0.57660        1.79536       -0.45608
C          2.57275        0.27885       -0.52092
N          2.06164       -0.48828       -1.66545
C          2.63277       -1.84237       -1.84375
H          1.70415        4.87256       -0.25415
H         -0.61983        3.58231       -0.32925
H          3.61791        3.01694       -0.38522
H          3.66063        0.44741       -0.59609
H          2.35742       -0.24557        0.43023
C          2.19648       -2.80423       -0.72165
C          2.08211       -2.39679       -3.17258
C          4.16524       -1.80420       -1.92313
H          1.10038       -2.91498       -0.71678
H          2.61760       -3.82008       -0.88681
H          2.53480       -2.46270        0.27692
H          2.35218       -1.72960       -4.01732
H          2.49393       -3.41040       -3.37681
H          0.97204       -2.47973       -3.13842
H          4.48972       -1.11053       -2.72584
H          4.60935       -1.48323       -0.95789
H          4.56537       -2.81733       -2.13510
