81
speciation676.ct
Na         2.09921        0.05388        0.42648
Li         0.38043        5.42261        1.43133
C          0.06642        7.05971       -0.85830
C          2.31907        6.45367       -0.38517
O          1.02666        6.72580        0.14143
C         -0.09427        6.04832       -1.99981
C          3.01710        7.68652       -0.95753
H         -0.91532        7.13267       -0.36582
H          0.25073        8.08245       -1.24908
H          2.95722        6.07484        0.44149
H          2.29249        5.67215       -1.15872
H          3.13937        8.45854       -0.17190
H          4.01975        7.39248       -1.33684
H          2.45052        8.10597       -1.81328
H         -0.26853        5.03060       -1.59312
H         -0.96401        6.34238       -2.62454
H          0.79069        6.04478       -2.66924
H         -1.53445        7.23379        1.79128
C         -2.25205        5.85906        3.27135
C         -1.58722        6.13213        1.92360
C         -1.44748        6.45568        4.42899
H         -3.26543        6.32259        3.25951
H         -2.36944        4.76368        3.41007
H         -0.44113        5.98899        4.45868
H         -1.32592        7.55140        4.28263
C         -2.15351        6.21927        5.76302
H         -2.24146        5.71878        1.12629
H         -3.14287        6.72698        5.77168
H         -2.30278        5.13246        5.93672
H         -1.53872        6.63182        6.59006
C          0.57701        3.19393        3.45544
C          1.23679        2.01633        3.74456
C          2.09634        1.77905        2.69881
C          1.92189        2.82271        1.81034
N          0.99599        3.69762        2.27250
C          2.66991        2.98674        0.52716
N          2.37302        1.88399       -0.38560
C          3.02330        1.79337       -1.69869
H          1.11381        1.40006        4.62803
H         -0.16369        3.65835        4.08924
H          2.77821        0.94412        2.60079
H          3.75382        3.05546        0.74688
H          2.31442        3.90594        0.05774
C          4.55523        1.67253       -1.56973
C          2.46194        0.52954       -2.34399
C          2.64269        2.97995       -2.58864
H          4.83256        0.79939       -0.94031
H          5.01378        1.53045       -2.57036
H          4.99861        2.58989       -1.12505
H          1.35979        0.58158       -2.46289
H          2.93617        0.29702       -3.32184
H          2.64871       -0.27934       -1.64458
H          1.53462        3.07378       -2.63534
H          3.07667        3.91180       -2.19061
H          3.03127        2.83426       -3.61822
Li         1.43224        0.18026        0.08407
C         -1.58937        0.79425        0.39599
C         -2.65912       -0.08379        0.37192
C         -2.13117       -1.34721        0.16515
C         -0.76586       -1.17630        0.05889
N         -0.45412        0.11086        0.21646
C          0.28703       -2.19120       -0.27965
N          1.55769       -1.90291        0.42100
C          2.69712       -2.80875        0.04327
H         -3.70488        0.17040        0.48315
H         -1.65135        1.86960        0.53255
H         -2.68355       -2.27082        0.06850
H         -0.09925       -3.21433       -0.11503
H          0.44794       -2.02793       -1.36057
C          2.98768       -2.93861       -1.48098
C          3.97684       -2.30379        0.73273
C          2.41026       -4.23609        0.55799
H          3.46714       -2.06288       -1.94273
H          3.74997       -3.72602       -1.65614
H          2.09892       -3.23590       -2.07251
H          3.85159       -2.28693        1.83667
H          4.84141       -2.96159        0.49171
H          4.22567       -1.27551        0.39473
H          2.27247       -4.23676        1.65972
H          1.51034       -4.67068        0.08030
H          3.25763       -4.91419        0.31423
