110
speciation1939.ct
Na         1.01456        0.17204        0.35164
Mg         4.59577        4.23045       -1.54636
C          0.36503        1.60249        3.37191
C         -1.21129        2.29321        1.76486
O          0.04533        1.64063        1.96117
C         -0.67823        1.04448        4.34319
C         -1.24435        3.77681        2.18397
H          1.22855        0.93701        3.54232
H          0.67461        2.62096        3.70878
H         -1.40783        2.35079        0.70936
H         -2.05092        1.71620        2.20392
H         -0.46178        4.35313        1.64497
H         -2.23455        4.20836        1.91858
H         -1.11690        3.91661        3.27616
H         -0.88688       -0.00974        4.10397
H         -0.25031        1.08868        5.37143
H         -1.61407        1.63546        4.36344
H          7.12513        4.17770       -2.52644
C          7.04359        2.20219       -1.67554
C          6.66149        3.67353       -1.65310
C          6.55104        1.55274       -2.96814
H          8.14966        2.09807       -1.61629
H          6.64494        1.71964       -0.77444
H          5.46243        1.72740       -3.11065
H          7.10253        2.02395       -3.81084
C          6.81097        0.05109       -2.97794
H          7.09253        4.12395       -0.73151
H          7.86964       -0.16849       -2.72457
H          6.14518       -0.45477       -2.24606
H          6.59685       -0.34939       -3.99128
C          2.95819        4.81496       -3.73550
C          2.10646        4.61115       -4.77926
C          1.74094        3.30288       -4.72095
C          2.31846        2.74403       -3.57696
N          3.14740        3.69615       -3.00082
C          2.03835        1.26243       -3.17614
N          0.93818        1.01183       -2.14380
C         -0.44488        0.78075       -2.73674
H          1.79210        5.33359       -5.52004
H          3.42374        5.75829       -3.53169
H          1.11173        2.83716       -5.45404
H          2.98821        0.72559       -2.95967
H          1.78770        0.75037       -4.12063
C         -0.57159       -0.44455       -3.71404
C         -1.40937        0.58115       -1.58143
C         -0.94205        2.00378       -3.53652
H         -0.47278       -1.44873       -3.28911
H         -1.60018       -0.46504       -4.13412
H          0.10106       -0.39759       -4.58906
H         -1.44167        1.54154       -1.07185
H         -2.43983        0.37844       -1.94410
H         -1.09174       -0.22136       -0.88613
H         -0.81128        2.95011       -2.97495
H         -0.46857        2.04146       -4.51336
H         -2.02051        1.88621       -3.77948
Na         0.93268        2.97584       -1.29555
Mg         3.75735       -1.36843       -0.57196
C         -0.34796       -2.45928        1.98023
C          0.41768       -2.99257       -0.13873
O          0.05719       -1.91788        0.71456
C         -1.55940       -3.43367        1.89034
C          1.10970       -2.45948       -1.34792
H          0.49568       -2.96604        2.50184
H         -0.68873       -1.62422        2.61208
H          1.08390       -3.75161        0.33877
H         -0.51354       -3.46978       -0.51750
H          2.12932       -2.15149       -1.12090
H          1.10458       -3.21373       -2.16504
H          0.57578       -1.55574       -1.61433
H         -1.30698       -4.37521        1.35237
H         -1.89032       -3.74763        2.90369
H         -2.41899       -2.95528        1.37433
H          3.79995        6.76054       -1.20594
C          5.59179        7.21653       -2.36208
C          4.83634        6.38032       -1.33530
C          5.55890        8.71831       -1.97391
H          6.64373        6.87018       -2.40497
H          5.13742        7.10835       -3.35944
H          4.50221        9.06001       -1.95216
H          6.00158        8.86983       -0.96527
C          6.32670        9.56285       -2.98152
H          5.38102        6.48323       -0.37039
H          7.40629        9.29902       -2.96906
H          5.92454        9.41400       -4.00549
H          6.22624       10.63924       -2.71902
C          3.55716        4.62664        1.06041
C          2.93876        4.00999        2.10973
C          2.87536        2.69988        1.75679
C          3.49398        2.52719        0.57764
N          3.86243        3.73537        0.09906
C          3.71093        1.20307       -0.08263
N          3.29843        0.02467        0.70914
C          4.23564       -0.41817        1.81617
H          2.56492        4.44780        3.02456
H          3.75269        5.68429        1.01291
H          2.46468        1.91407        2.28008
H          4.73555        1.08220       -0.41896
H          3.11635        1.21743       -0.97234
C          4.49590        0.60929        2.94660
C          3.64105       -1.67197        2.47521
C          5.63440       -0.79637        1.25877
H          3.59493        0.81406        3.55302
H          5.21711        0.21156        3.68923
H          4.96571        1.53488        2.55340
H          3.55375       -2.50175        1.74425
H          4.28816       -2.01395        3.31475
H          2.63377       -1.44703        2.88574
H          5.57425       -1.61683        0.51645
H          6.15461        0.06768        0.80527
H          6.29763       -1.13788        2.08417
