96
speciation1738.ct
Na         1.63522       -2.46431       -2.24428
Mg         9.77589        1.66850       -2.22601
C         11.44328       -0.30117       -1.53539
C         12.79966        1.49302       -2.28736
O         11.54251        0.81933       -2.42050
C         11.73008        0.01871       -0.06153
C         13.99721        0.65771       -2.77961
H         10.39537       -0.65049       -1.59137
H         12.05219       -1.15542       -1.89709
H         12.80375        2.38214       -2.92378
H         12.97599        1.87650       -1.26205
H         13.90177        0.44457       -3.86631
H         14.94280        1.22253       -2.61943
H         14.09805       -0.30002       -2.23165
H         11.12423        0.88572        0.27153
H         11.48205       -0.86413        0.56677
H         12.80833        0.22874        0.11404
H          3.99323        2.56224       -0.71179
C          2.27286        1.92465        0.45958
C          3.04491        2.00349       -0.85834
C          3.09066        1.20516        1.52660
H          2.02597        2.95206        0.80938
H          1.32166        1.37807        0.30879
H          3.38203        0.19629        1.16165
H          4.00951        1.79408        1.73718
C          2.28070        1.04856        2.81075
H          2.43352        2.56563       -1.59755
H          1.94458        2.03962        3.18381
H          1.38925        0.41104        2.62344
H          2.90640        0.56466        3.58865
C         -1.23440       -2.73015       -0.94713
C         -2.21508       -1.77708       -0.75307
C         -1.71886       -0.58484       -1.24603
C         -0.45388       -0.86233       -1.72496
N         -0.17200       -2.16124       -1.53607
C          0.49109        0.13522       -2.38346
N          1.80289       -0.46437       -2.76625
C          2.10194       -0.50191       -4.21348
H         -3.18664       -1.93811       -0.30425
H         -1.29346       -3.77631       -0.67862
H         -2.22448        0.37108       -1.25954
H          0.66642        0.96935       -1.69223
H         -0.03963        0.57910       -3.24532
C          2.24942        0.91920       -4.79285
C          3.44073       -1.21959       -4.38791
C          1.03013       -1.31280       -4.97481
H          3.05684        1.47038       -4.26315
H          2.51388        0.86689       -5.87127
H          1.31686        1.50890       -4.70640
H          3.40340       -2.25087       -3.97792
H          3.73906       -1.27839       -5.45640
H          4.20620       -0.64192       -3.84763
H          0.94815       -2.33573       -4.54734
H          0.03093       -0.83872       -4.92540
H          1.30552       -1.40740       -6.04637
Mg         3.39366        0.08621       -1.70063
C          9.29493        4.00207       -0.63660
C         10.02828        4.68779       -2.76179
O          9.87496        3.59090       -1.86628
C          7.84025        4.46509       -0.78317
C         10.75296        4.30565       -4.03979
H          9.31345        3.12994        0.04848
H          9.91084        4.78644       -0.13602
H          9.04514        5.09292       -3.07506
H         10.64683        5.48341       -2.28443
H         10.17642        3.57125       -4.61468
H         10.87359        5.20130       -4.68179
H         11.75597        3.91978       -3.82669
H          7.25361        3.69477       -1.32396
H          7.39291        4.63400        0.21817
H          7.77738        5.42966       -1.32977
C          4.67756       -2.47654       -1.47353
C          5.83072       -3.22281       -1.38955
C          6.87711       -2.31944       -1.35668
C          6.30982       -1.05333       -1.42525
N          4.95909       -1.15288       -1.49902
C          7.08633        0.25333       -1.42950
N          8.09533        0.37759       -2.52346
C          7.57950        0.43295       -3.91836
H          5.89235       -4.30353       -1.38126
H          3.67287       -2.89154       -1.53502
H          7.92492       -2.56923       -1.31177
H          6.38218        1.10946       -1.43542
H          7.62390        0.29319       -0.46229
C          6.46549        1.49574       -4.08335
C          8.75115        0.82320       -4.81616
C          7.09957       -0.94754       -4.42595
H          6.82678        2.49131       -3.74660
H          6.15382        1.57900       -5.14789
H          5.55709        1.23850       -3.50295
H          9.57115        0.07703       -4.74386
H          8.43421        0.90597       -5.88000
H          9.13522        1.79161       -4.48385
H          7.91217       -1.69886       -4.33665
H          6.23184       -1.33989       -3.88799
H          6.79522       -0.88464       -5.49463
