83
speciation307.ct
Na         2.37083        0.14531        1.34607
Mg         2.85125        1.84543       -1.41223
C          5.26980        0.96417        3.01690
C          5.74512        0.09098        0.87491
O          4.72393        0.31709        1.85933
C          6.07190        2.27578        2.79320
C          6.86634       -0.89570        1.29471
H          4.43192        1.19843        3.69787
H          5.91728        0.25029        3.57133
H          5.26815       -0.32487        0.00047
H          6.19972        1.02421        0.48433
H          7.62089       -0.37286        1.91728
H          7.39988       -1.26813        0.38886
H          6.50358       -1.78206        1.85929
H          5.49009        3.06496        2.29242
H          6.37839        2.68119        3.78028
H          7.00840        2.12309        2.21700
C         -2.21654       -0.90924       -0.02443
C         -3.00042        0.19461        0.24790
C         -2.19251        1.30303        0.02398
C         -0.94602        0.85396       -0.36451
N         -0.99011       -0.49259       -0.40845
C          0.23261        1.71956       -0.81171
N          1.50116        1.79480        0.00346
C          1.76762        3.10660        0.65398
H         -4.02295        0.16518        0.58008
H         -2.50838       -1.94920        0.04441
H         -2.50578        2.33237        0.12953
H         -0.19205        2.71422       -0.97648
H          0.50833        1.35926       -1.82289
C          0.80350        3.33042        1.79763
C          3.17512        3.05031        1.23393
C          1.72983        4.32223       -0.30351
H          0.90649        2.45618        2.43790
H          1.05811        4.23364        2.39026
H         -0.23289        3.42355        1.42358
H          3.93676        2.89231        0.43756
H          3.42177        3.98944        1.77850
H          3.22744        2.22607        1.96200
H          2.45729        4.19890       -1.13189
H          0.73030        4.53540       -0.72194
H          2.00076        5.24113        0.26312
Na         0.39295       -1.64900       -0.85698
C         -0.39653       -0.30487        3.03241
C          1.15374        0.78677        4.44671
O          0.99863       -0.03358        3.27087
C         -1.37546        0.89608        3.06982
C          0.60101        0.17116        5.76231
H         -0.48255       -0.76174        2.03777
H         -0.76685       -1.09231        3.72268
H          2.22343        1.00049        4.60927
H          0.66791        1.76986        4.34598
H          1.24012       -0.65557        6.13401
H          0.56233        0.96344        6.54734
H         -0.44562       -0.19491        5.68544
H         -1.09775        1.63024        2.31277
H         -2.40877        0.56772        2.84050
H         -1.43611        1.40651        4.05171
C          3.27254       -3.23356       -4.44942
C          1.90746       -3.06027       -4.45635
C          1.57534       -2.30279       -3.33940
C          2.70446       -2.03476       -2.66718
N          3.81867       -2.60171       -3.32571
C          2.88621       -1.19095       -1.42170
N          2.16920       -1.57391       -0.18234
C          2.35755       -2.87296        0.47913
H          1.23763       -3.44214       -5.21681
H          3.85109       -3.76700       -5.19210
H          0.57517       -1.97710       -3.09008
H          2.53421       -0.17824       -1.69905
H          3.95208       -1.14840       -1.23954
C          3.69349       -2.87080        1.21547
C          1.21755       -3.03334        1.50905
C          2.25050       -4.05435       -0.49900
H          3.69966       -2.05199        1.96759
H          3.84992       -3.83265        1.74278
H          4.52129       -2.70196        0.49936
H          0.21656       -2.97176        1.02441
H          1.27581       -4.00701        2.03718
H          1.27950       -2.24406        2.27524
H          1.28470       -4.01354       -1.05048
H          3.09327       -4.06198       -1.21212
H          2.28884       -5.01553        0.05387
