95
speciation1528.ct
Na         1.21170        1.69181       -0.30712
Mg         3.62875       -0.35506       -1.23306
C          5.54109        1.57386       -2.26224
C          5.90570        1.08883        0.03484
O          4.95001        1.14649       -1.03597
C          6.89061        0.94340       -2.66121
C          6.24768        2.48404        0.59149
H          4.82524        1.33167       -3.05587
H          5.62428        2.68150       -2.27570
H          5.51927        0.46553        0.85947
H          6.82143        0.53354       -0.22167
H          5.36559        2.97828        1.04188
H          7.00345        2.39845        1.39752
H          6.66059        3.14276       -0.20236
H          6.83160       -0.15758       -2.65957
H          7.17289        1.27296       -3.68036
H          7.71281        1.27167       -1.99156
H          5.65568       -1.84773       -2.04645
C          4.70015       -3.57261       -1.25335
C          4.99032       -2.07071       -1.19685
C          6.01538       -4.36239       -1.06431
H          3.99429       -3.84155       -0.44034
H          4.24002       -3.81414       -2.23441
H          6.75416       -4.06853       -1.84298
H          6.44754       -4.12206       -0.06647
C          5.80488       -5.87112       -1.14476
H          5.57622       -1.87309       -0.27826
H          5.08248       -6.20514       -0.37090
H          5.43043       -6.15346       -2.15068
H          6.77318       -6.38982       -0.97031
C         -1.69041        0.48107       -1.19947
C         -2.29928       -0.75818       -1.15668
C         -1.36812       -1.63413       -0.64163
C         -0.23105       -0.88546       -0.40348
N         -0.43411        0.40409       -0.71541
C          1.05326       -1.39031        0.15192
N          2.02867       -0.28243        0.32461
C          2.52772       -0.18533        1.73603
H         -3.31094       -0.99385       -1.46017
H         -2.15261        1.38357       -1.55143
H         -1.50859       -2.69224       -0.45818
H          1.48135       -2.16801       -0.51114
H          0.78428       -1.89959        1.09450
C          3.43810       -1.39832        2.01033
C          3.21912        1.17384        1.84972
C          1.47090       -0.15469        2.88861
H          4.16010       -1.52924        1.21001
H          3.97962       -1.31097        2.97337
H          2.83315       -2.33602        2.05591
H          2.47537        1.99170        1.95152
H          3.92258        1.22330        2.70799
H          3.66934        1.44156        0.90444
H          0.78661        0.71440        2.80940
H          0.86266       -1.06903        3.00522
H          2.01449       -0.05556        3.86102
Na        -0.46170        7.64843       -1.43455
Mg        -0.18307        4.74568       -3.06046
H          1.90816       -1.12710       -3.26954
C          3.19851       -0.21186       -4.73792
C          2.61142       -0.26766       -3.29248
C          3.97131       -1.47443       -5.15124
H          2.35837       -0.07968       -5.45920
H          3.85414        0.67295       -4.85854
H          4.81560       -1.63475       -4.45185
H          3.29197       -2.35357       -5.11400
C          4.53529       -1.36348       -6.57803
H          2.01526        0.66257       -3.17385
H          3.72248       -1.23777       -7.32642
H          5.23370       -0.50285       -6.66284
H          5.09697       -2.28821       -6.83465
C          3.12128        4.32054       -0.36970
C          3.12618        5.71159       -0.32347
C          1.81561        6.10691       -0.27463
C          1.06728        4.94447       -0.30530
N          1.85987        3.83838       -0.35417
C         -0.41506        4.88892       -0.28395
N         -0.96371        5.56940       -1.47010
C         -2.43241        5.48710       -1.61738
H          3.99775        6.35506       -0.31607
H          3.98909        3.70239       -0.43913
H          1.45550        7.12941       -0.22122
H         -0.69579        3.81473       -0.27156
H         -0.75633        5.37536        0.65169
C         -3.14724        6.13156       -0.41198
C         -2.82168        6.26113       -2.88812
C         -2.88690        4.02630       -1.79238
H         -2.79819        7.17788       -0.27636
H         -4.24641        6.13787       -0.56614
H         -2.95281        5.56970        0.52459
H         -2.32827        5.82388       -3.78318
H         -3.92204        6.22107       -3.04429
H         -2.52323        7.32794       -2.80870
H         -2.32661        3.55327       -2.62961
H         -2.72407        3.44374       -0.86569
H         -3.97231        3.96778       -2.01510
