66
speciation244.ct
Na         1.65929        0.44422        1.43997
Mg         0.87814       -0.66225       -0.46573
H         -0.31663       -2.19644       -2.58283
C         -0.23811       -3.95064       -1.33456
C          0.39781       -2.57997       -1.83055
C         -0.33022       -5.06751       -2.40492
H          0.25295       -4.43346       -0.47866
H         -1.26516       -3.75065       -0.96156
H         -0.82331       -5.95714       -1.94750
H         -0.95616       -4.73751       -3.25860
C          1.03199       -5.55253       -2.92968
H          1.35279       -2.80151       -2.33942
H          1.56201       -4.73801       -3.46521
H          1.67034       -5.92525       -2.10220
H          0.87936       -6.38301       -3.65183
C         -1.96097       -1.09410        0.67090
C         -2.97348       -0.16189        0.85098
C         -2.46718        1.06394        0.46928
C         -1.18107        0.82068        0.04524
N         -0.87271       -0.47611        0.17642
C         -0.24737        1.83666       -0.56116
N          1.14554        1.51170       -0.22341
C          2.06828        2.70840       -0.16609
H         -3.97380       -0.35558        1.20881
H         -2.03450       -2.15541        0.83065
H         -2.98561        2.01396        0.46818
H         -0.58380        2.84937       -0.27632
H         -0.32991        1.77207       -1.66464
C          1.57607        3.80528        0.82772
C          3.44470        2.29839        0.37699
C          2.27430        3.31859       -1.55898
H          1.42561        3.38317        1.84556
H          2.33398        4.61791        0.91680
H          0.65341        4.32351        0.51057
H          3.92411        1.66337       -0.35905
H          4.12051        3.17498        0.50106
H          3.38152        1.80507        1.37046
H          2.68198        2.54916       -2.24883
H          1.32000        3.70545       -1.96401
H          3.00129        4.16077       -1.50675
Mg         5.01900        0.39882        1.96722
C          6.66377        0.17129       -0.40658
C          6.67533       -0.18038       -1.73895
C          5.42219       -0.66541       -2.02437
C          4.70188       -0.61225       -0.84896
N          5.45821       -0.08062        0.13556
C          3.24777       -0.99203       -0.78850
N          2.56353       -1.17140        0.51912
C          2.90251       -2.35196        1.34069
H          7.49788       -0.07200       -2.43251
H          7.48532        0.61581        0.13548
H          5.06618       -1.00878       -2.98781
H          3.08641       -1.87100       -1.42943
H          2.71963       -0.18709       -1.34218
C          4.27225       -2.19977        2.01398
C          1.83380       -2.46823        2.44339
C          2.95075       -3.63933        0.51507
H          4.29559       -1.27900        2.62266
H          4.47908       -3.05685        2.67373
H          5.08062       -2.19376        1.25476
H          0.82322       -2.60618        2.00447
H          2.05325       -3.32469        3.11544
H          1.82292       -1.54194        3.05676
H          2.01858       -3.72532       -0.00496
H          3.74612       -3.62133       -0.25869
H          3.10167       -4.53290        1.15154
