110
speciation2423.ct
Na         0.93187       -0.06925       -0.58424
Mg        -2.47490        1.84439       -0.42881
C         -0.34746       -2.56045        1.20800
C         -0.66697       -2.69328       -1.07988
O         -0.18818       -1.87063       -0.03305
C         -0.17418       -1.64632        2.41112
C         -0.70471       -1.91435       -2.37577
H         -1.38674       -2.96294        1.30880
H          0.37946       -3.39973        1.28801
H         -0.01542       -3.58649       -1.20934
H         -1.72091       -3.00553       -0.88848
H          0.30972       -1.57666       -2.65108
H         -1.10153       -2.55758       -3.18869
H         -1.36835       -1.03898       -2.24810
H         -0.90849       -0.81624        2.37348
H         -0.35804       -2.23263        3.34222
H          0.85503       -1.24375        2.45184
H         -4.46311        1.95048       -2.26576
C         -5.54935        0.73310       -0.83438
C         -4.22993        1.17507       -1.50221
C         -6.31474        1.89662       -0.20225
H         -6.20219        0.28643       -1.62034
H         -5.31716       -0.04614       -0.08294
H         -5.67149        2.37393        0.55385
H         -6.56375        2.65267       -0.97500
C         -7.60308        1.41245        0.46604
H         -3.82306        0.29412       -2.04092
H         -8.27349        0.94823       -0.27935
H         -7.36921        0.67635        1.26415
H         -8.12531        2.27790        0.92909
C          1.99634        3.07914       -4.12517
C          1.21293        4.07154       -4.66190
C         -0.07951        3.80940       -4.24464
C          0.00141        2.66681       -3.46150
N          1.23825        2.23788       -3.38862
C         -1.03782        1.89287       -2.77888
N         -0.63524        1.57595       -1.37007
C         -0.05350        2.64831       -0.53156
H          1.54947        4.86184       -5.32142
H          3.05660        2.94424       -4.30507
H         -0.96285        4.36304       -4.52272
H         -1.18414        0.93899       -3.33280
H         -1.99591        2.44614       -2.82990
C         -0.77679        4.01040       -0.77113
C         -0.07282        2.02011        0.87519
C          1.42602        2.94738       -0.72702
H         -1.87620        3.86817       -0.92404
H         -0.55134        4.74338        0.00145
H         -0.47302        4.46692       -1.73071
H          0.65984        1.19651        0.97925
H          0.25214        2.74116        1.64173
H         -1.03109        1.51003        1.08909
H          1.89977        1.96728       -0.77289
H          1.68026        3.59002       -1.58827
H          1.84973        3.51533        0.12606
Na         1.97451        0.11396       -2.63776
Mg         3.96235        1.35681        1.33224
C          6.02269        2.74669        2.63396
C          4.13549        2.36295        3.96834
O          4.60901        2.61652        2.65835
C          6.77434        1.44988        2.98355
C          2.61995        2.24153        3.95673
H          6.30357        3.06488        1.60988
H          6.36296        3.58260        3.28286
H          4.53266        1.41462        4.38511
H          4.39635        3.21722        4.63382
H          2.31330        1.36299        3.35032
H          2.25483        2.10163        4.99739
H          2.16118        3.16012        3.53569
H          6.39361        0.59071        2.39618
H          7.85591        1.57892        2.77190
H          6.67794        1.20451        4.05957
H         -1.74537        3.42274        1.74592
C         -3.60460        2.95590        2.49005
C         -2.73970        3.30327        1.30731
C         -3.16831        3.78045        3.71161
H         -4.65072        3.17559        2.22744
H         -3.47873        1.87768        2.72692
H         -2.13374        3.48408        4.00978
H         -3.16021        4.86489        3.46553
C         -4.10161        3.53867        4.87848
H         -2.95394        4.33471        0.96473
H         -5.12383        3.87018        4.60094
H         -4.11409        2.45911        5.13772
H         -3.75146        4.12279        5.75389
C          2.68888       -3.15629       -2.59407
C          3.23155       -4.18682       -1.85557
C          3.59163       -3.65160       -0.63950
C          3.25971       -2.30957       -0.68812
N          2.71078       -2.00996       -1.88690
C          3.53735       -1.31957        0.41109
N          3.29903        0.06463       -0.02804
C          4.43261        0.51679       -1.04570
H          3.36464       -5.21195       -2.17380
H          2.31136       -3.23682       -3.60445
H          4.07435       -4.17357        0.18026
H          4.58448       -1.44499        0.74056
H          2.91520       -1.55485        1.29553
C          4.71452       -0.32442       -2.34778
C          4.20575        1.94386       -1.57257
C          5.82887        0.59707       -0.38487
H          3.90178       -0.36167       -3.08559
H          5.51898        0.14229       -2.95896
H          5.10165       -1.33793       -2.12741
H          4.08570        2.67911       -0.75270
H          5.04760        2.30419       -2.20839
H          3.36125        1.94002       -2.25870
H          5.83054        1.34456        0.40474
H          6.22364       -0.36824       -0.02347
H          6.59294        0.95165       -1.12164
