95
speciation1815.ct
Na         2.78528        6.22605        0.05214
Mg        -1.63021        3.16541        3.42003
C         -3.82795        2.02948        4.69026
C         -2.95588        4.03253        5.65148
O         -2.67444        2.79613        5.01277
C         -4.89664        2.76665        3.87693
C         -3.52111        3.85937        7.06346
H         -3.47953        1.16929        4.08329
H         -4.26918        1.57759        5.60347
H         -1.99599        4.57591        5.76179
H         -3.60317        4.68717        5.03321
H         -2.80721        3.28854        7.69418
H         -3.68071        4.85953        7.52006
H         -4.49833        3.33645        7.04741
H         -4.43233        3.22197        2.98396
H         -5.68046        2.04942        3.55578
H         -5.39890        3.55060        4.48073
H         -0.23239        6.85881        0.29113
C         -1.54670        7.29767       -1.30782
C         -0.85511        6.28203       -0.40709
C         -2.36718        8.29012       -0.47718
H         -0.76878        7.86697       -1.86668
H         -2.18457        6.76126       -2.04056
H         -3.10605        7.74613        0.13622
H         -1.70631        8.84325        0.22491
C         -3.08563        9.29206       -1.37681
H         -0.18854        5.63846       -1.00261
H         -2.34634        9.91364       -1.92597
H         -3.73179        8.76276       -2.10979
H         -3.72247        9.95783       -0.75783
C          1.86336        5.46390       -3.01317
C          2.52174        5.05479       -4.15615
C          3.86935        5.09705       -3.87380
C          3.96865        5.55245       -2.57410
N          2.75270        5.73102       -2.03499
C          5.22002        5.79286       -1.81370
N          4.87389        6.43402       -0.53042
C          5.86523        6.30147        0.55960
H          2.06564        4.74643       -5.08701
H          0.79345        5.52527       -2.91315
H          4.68088        4.82943       -4.53697
H          5.87813        6.48139       -2.38917
H          5.72075        4.81538       -1.71096
C          7.18050        7.01531        0.18860
C          5.26212        6.97652        1.80059
C          6.15222        4.82231        0.91438
H          6.99174        8.08755       -0.03562
H          7.90383        6.96015        1.03141
H          7.65496        6.54846       -0.69950
H          4.31521        6.47108        2.08433
H          5.95838        6.91842        2.66432
H          5.03793        8.04519        1.59685
H          5.21353        4.29484        1.18699
H          6.64609        4.26828        0.09225
H          6.85409        4.76525        1.77409
Na         4.68948        8.52062       -0.97721
Mg        -1.83415        4.78613        0.70659
H         -4.43543        4.01679        0.88731
C         -4.85232        5.52153       -0.58001
C         -4.04850        5.02455        0.63834
C         -4.62309        4.63988       -1.80498
H         -5.93891        5.52582       -0.32719
H         -4.57904        6.55979       -0.83153
H         -3.53646        4.61603       -2.03415
H         -4.97275        3.60830       -1.59076
C         -5.36799        5.17884       -3.02809
H         -4.29068        5.69381        1.49351
H         -6.46524        5.19537       -2.84742
H         -5.02540        6.20910       -3.26618
H         -5.16197        4.52829       -3.90305
C          1.39593        7.65369        2.58177
C          0.58198        7.40957        3.66927
C          0.22461        6.07732        3.61318
C          0.82775        5.55879        2.48981
N          1.55042        6.51731        1.85394
C          0.79603        4.12814        2.02868
N         -0.55907        3.54422        1.78624
C         -0.51851        2.16637        1.24873
H          0.30289        8.12133        4.43364
H          1.85763        8.59102        2.33362
H         -0.38543        5.54859        4.33064
H          1.39938        4.10611        1.10516
H          1.31393        3.54759        2.81438
C          0.14829        1.19072        2.25274
C         -1.97375        1.71784        1.05877
C          0.21479        2.11264       -0.10861
H         -0.36652        1.23403        3.23866
H          0.10123        0.14645        1.88018
H          1.22124        1.42092        2.41456
H         -2.51422        2.40807        0.37995
H         -2.02079        0.68895        0.64151
H         -2.50145        1.71060        2.03454
H         -0.18186        2.89518       -0.78939
H          1.30701        2.26685        0.01559
H          0.09553        1.11767       -0.58428
