83
speciation707.ct
Na         1.29723        1.88368       -0.08527
Mg         5.45697       -1.75086       -4.50031
C          6.98302       -2.86048       -6.64839
C          5.40064       -1.24990       -7.41318
O          5.73845       -2.20560       -6.40818
C          8.19429       -1.94322       -6.84279
C          5.22147       -1.84938       -8.82520
H          7.22086       -3.47969       -5.76567
H          6.88564       -3.57988       -7.48798
H          4.41223       -0.82205       -7.17685
H          6.12462       -0.41106       -7.43472
H          4.37930       -2.57319       -8.83897
H          4.99003       -1.03460       -9.54598
H          6.13937       -2.34906       -9.19445
H          8.33322       -1.31783       -5.95069
H          9.10559       -2.56444       -6.95268
H          8.10683       -1.31601       -7.75287
C         -1.78736        1.13004        0.00746
C         -2.41857       -0.09155        0.02033
C         -1.42142       -1.05104        0.00238
C         -0.22495       -0.36270       -0.01772
N         -0.46072        0.96098       -0.02127
C          1.16081       -0.98604       -0.03091
N          2.24500        0.03300       -0.00400
C          3.07804        0.10138        1.21722
H         -3.48580       -0.27223        0.04065
H         -2.27626        2.10248        0.01141
H         -1.55516       -2.12345        0.00714
H          1.26609       -1.58928       -0.95694
H          1.22216       -1.67996        0.82631
C          3.85421       -1.21312        1.46059
C          4.10834        1.22409        1.00766
C          2.21872        0.45668        2.44996
H          4.49561       -1.45457        0.58636
H          4.50777       -1.10870        2.35396
H          3.18528       -2.07380        1.65173
H          3.60320        2.19897        0.82309
H          4.76625        1.33729        1.89687
H          4.75244        0.99907        0.13349
H          1.68361        1.41609        2.28596
H          1.46556       -0.32959        2.66634
H          2.85969        0.57027        3.35063
Na         3.59933        0.09296       -1.94799
C          5.46847       -4.48088       -3.84958
C          5.86243       -3.21036       -1.88089
O          5.97621       -3.26294       -3.30924
C          4.04669       -4.85429       -3.41461
C          6.78865       -4.21626       -1.16672
H          5.41233       -4.36193       -4.94408
H          6.18211       -5.31571       -3.67772
H          6.18653       -2.23194       -1.51964
H          4.81876       -3.30965       -1.53388
H          7.85314       -4.00720       -1.40630
H          6.65539       -4.12642       -0.06683
H          6.55545       -5.26528       -1.43947
H          3.36199       -4.00076       -3.60065
H          3.70481       -5.73184       -4.00075
H          4.00862       -5.14861       -2.34527
C          1.27321       -1.45895       -5.12432
C          0.93784       -0.50399       -6.05803
C          1.95786        0.43132       -6.07454
C          2.87742        0.05766       -5.18624
N          2.51168       -1.14354       -4.54178
C          4.13199        0.82933       -4.90836
N          4.95365        0.15292       -3.89199
C          6.13127        0.96002       -3.43644
H          0.03885       -0.48995       -6.65897
H          0.67654       -2.32476       -4.87117
H          2.00423        1.31668       -6.69613
H          3.80809        1.82818       -4.56291
H          4.70284        0.94449       -5.84720
C          5.70089        2.29047       -2.77325
C          6.88263        0.14182       -2.38372
C          7.11874        1.28441       -4.57438
H          4.97009        2.11028       -1.95991
H          6.58433        2.80758       -2.33716
H          5.26175        2.99844       -3.50316
H          7.24309       -0.80736       -2.83496
H          7.76953        0.68634       -1.99587
H          6.21265       -0.06617       -1.52399
H          7.50009        0.35910       -5.01913
H          6.65926        1.90342       -5.36980
H          7.98956        1.85429       -4.17887
