96
speciation1323.ct
Na         0.18691        0.12230       -0.78401
Mg         3.03575       -0.54202       -1.69510
C         -1.09190        2.79905       -1.24772
C         -1.89385        1.10377       -2.69595
O         -0.87369        1.52408       -1.81739
C         -2.28407        2.84739       -0.30232
C         -1.54513       -0.26293       -3.26939
H         -0.21212        3.05337       -0.63625
H         -1.13336        3.58465       -2.03248
H         -2.86468        0.99748       -2.17238
H         -1.96685        1.81117       -3.55089
H         -1.46311       -1.02097       -2.46546
H         -2.32201       -0.58543       -3.99237
H         -0.58731       -0.21482       -3.80214
H         -2.21333        2.02194        0.43745
H         -2.27647        3.81765        0.23673
H         -3.23454        2.77351       -0.86552
H          1.26296        1.34282       -2.61208
C          2.03167        0.70437       -4.49147
C          2.23329        1.05012       -3.01886
C          1.56753        1.91011       -5.32706
H          2.96086        0.38740       -4.94085
H          1.35313       -0.15175       -4.59140
H          0.55189        2.24169       -5.01782
H          2.27300        2.76276       -5.18342
C          1.58834        1.51970       -6.79951
H          2.84465        1.96643       -2.94636
H          2.60950        1.18190       -7.08238
H          0.88226        0.68319       -6.97869
H          1.32113        2.38349       -7.43856
C         -1.28152       -2.55581        0.00117
C         -0.92461       -3.69957        0.68588
C          0.38848       -3.53210        1.07253
C          0.77234       -2.29859        0.60377
N         -0.24391       -1.70971       -0.03733
C          2.09953       -1.64349        0.76424
N          2.14131       -0.33213        0.07611
C          2.46136        0.83130        0.93969
H         -1.55295       -4.55790        0.87224
H         -2.24197       -2.35012       -0.45074
H          0.99435       -4.23698        1.63553
H          2.82867       -2.31700        0.29980
H          2.32635       -1.58584        1.84905
C          3.80977        0.70661        1.69436
C          2.56855        2.06061        0.04047
C          1.30693        1.04435        1.94144
H          4.65600        0.59187        0.98897
H          3.98956        1.63181        2.28816
H          3.83654       -0.13796        2.40751
H          1.65830        2.16233       -0.55587
H          2.72033        2.98944        0.62646
H          3.41753        1.95063       -0.65680
H          0.33626        1.10483        1.40233
H          1.24261        0.20931        2.66963
H          1.44761        1.98258        2.51536
Mg         4.96632        1.31720       -5.83424
C          5.68924        1.27900       -8.50050
C          5.31096        3.46349       -7.70544
O          4.95010        2.09733       -7.61040
C          7.19896        1.24742       -8.23533
C          4.45764        4.30138       -6.76690
H          5.30694        0.24443       -8.37089
H          5.47567        1.55290       -9.55715
H          6.37082        3.63323       -7.42307
H          5.11883        3.83367       -8.73716
H          4.64146        4.00512       -5.72544
H          4.72775        5.37391       -6.87081
H          3.37974        4.17025       -6.98639
H          7.39972        0.98224       -7.17760
H          7.66902        0.48456       -8.89096
H          7.67439        2.22003       -8.47681
C          5.15640       -2.60524       -1.15367
C          6.27058       -3.21823       -1.68122
C          6.44982       -2.68498       -2.93126
C          5.42760       -1.77028       -3.11837
N          4.62565       -1.72301       -2.03482
C          5.27897       -0.89841       -4.32701
N          4.98295        0.51697       -4.01230
C          6.01391        1.26577       -3.17773
H          6.89019       -3.95793       -1.18870
H          4.79673       -2.79792       -0.16206
H          7.24659       -2.92921       -3.62287
H          6.17837       -0.97920       -4.97512
H          4.43453       -1.30054       -4.91649
C          7.39888        1.27151       -3.85002
C          5.58669        2.73838       -3.00376
C          6.17658        0.72959       -1.73346
H          7.33639        1.71741       -4.86125
H          8.11799        1.87694       -3.24899
H          7.81890        0.24866       -3.91825
H          4.65519        2.84823       -2.42656
H          6.35033        3.30453       -2.42105
H          5.48629        3.23554       -3.97200
H          5.19207        0.65410       -1.23477
H          6.70727       -0.23568       -1.68316
H          6.81091        1.40609       -1.11864
