110
speciation2039.ct
Na         2.11366        0.79900       -0.30118
Mg         1.90020        0.94132       -4.24096
C          5.21735        0.85614        0.67124
C          4.91945        2.67978       -0.74398
O          4.40854        1.37531       -0.37308
C          4.65666       -0.42790        1.19040
C          6.45511        2.74259       -1.03583
H          6.23174        0.57763        0.28709
H          5.30455        1.56918        1.52149
H          4.40919        2.98986       -1.67204
H          4.68545        3.42959        0.03890
H          7.05864        2.66166       -0.10653
H          6.72561        3.71570       -1.49815
H          6.79885        1.94187       -1.71343
H          4.57758       -1.16815        0.36574
H          5.32646       -0.83512        1.97726
H          3.67134       -0.18943        1.62822
H          3.57561       -0.99000       -5.00347
C          4.80067        0.77170       -5.22339
C          3.46380        0.05997       -5.33903
C          5.26583        0.88690       -3.77630
H          5.56892        0.23825       -5.82519
H          4.68259        1.79755       -5.63348
H          6.20258        1.48108       -3.78359
H          4.49009        1.42798       -3.20401
C          5.54835       -0.45558       -3.09624
H          3.16039        0.04779       -6.40814
H          4.62755       -1.06775       -3.01334
H          6.32389       -1.01704       -3.65731
H          5.92176       -0.28024       -2.06674
C          1.65848        3.50992       -5.15316
C          1.33325        4.83534       -4.96354
C          0.93316        4.94991       -3.65189
C          1.03742        3.68486       -3.08726
N          1.50043        2.81524       -4.00870
C          0.77297        3.46201       -1.58930
N         -0.05336        2.28655       -1.17425
C         -1.52473        2.70604       -0.90399
H          1.39778        5.62155       -5.70031
H          2.03097        3.08431       -6.07089
H          0.61569        5.86082       -3.16655
H          0.36123        4.40180       -1.20215
H          1.74625        3.34774       -1.08822
C         -2.20504        3.32187       -2.16182
C         -2.47463        1.54660       -0.55567
C         -1.65173        3.66464        0.30529
H         -2.27467        2.58011       -2.99527
H         -3.27020        3.58857       -1.93973
H         -1.71810        4.23306       -2.53149
H         -2.28156        1.17271        0.45963
H         -3.53385        1.87770       -0.46492
H         -2.50757        0.78815       -1.35823
H         -1.17601        3.20143        1.19565
H         -1.22490        4.66375        0.13164
H         -2.72508        3.83819        0.54932
Na        -0.51738        1.26128       -2.82084
Mg        -2.95132       -2.13229       -2.82782
C          1.61358       -1.90020        1.86369
C          2.15583       -2.88905       -0.20415
O          2.06096       -1.64254        0.52287
C          2.61890       -2.63765        2.78035
C          0.85493       -3.74695       -0.37948
H          1.38576       -0.93410        2.36544
H          0.64351       -2.42539        1.88157
H          2.58694       -2.71198       -1.20807
H          2.90599       -3.55338        0.27990
H          0.12145       -3.28663       -1.05129
H          1.10440       -4.72341       -0.84474
H          0.34032       -4.01262        0.56172
H          3.46271       -1.97115        3.01345
H          2.10774       -2.89367        3.73074
H          3.03659       -3.59373        2.39639
H         -3.55783       -3.67431       -4.83518
C         -4.37177       -1.82143       -5.69234
C         -4.15330       -2.79825       -4.50182
C         -4.97848       -2.53960       -6.89726
H         -4.99953       -0.96676       -5.37060
H         -3.43746       -1.37261       -6.07481
H         -4.33175       -3.39815       -7.18847
H         -5.98408       -2.91997       -6.62410
C         -5.07753       -1.60032       -8.10039
H         -5.13114       -3.14642       -4.11708
H         -5.67222       -0.70026       -7.84218
H         -4.06144       -1.27791       -8.42536
H         -5.56073       -2.12668       -8.94881
C         -2.11662       -1.50381       -0.18280
C         -1.24837       -0.91353        0.69033
C         -0.22137       -0.46534       -0.06017
C         -0.38983       -0.88458       -1.38176
N         -1.63675       -1.46560       -1.44201
C          0.69976       -0.76272       -2.50510
N          0.38586       -0.11933       -3.79618
C         -0.21150       -0.90426       -4.88399
H         -1.35917       -0.75391        1.75630
H         -3.06962       -1.90171        0.10146
H          0.53013        0.07590        0.45199
H          1.20904       -1.71715       -2.68305
H          1.50441       -0.11988       -2.08767
C         -1.47182       -1.50965       -4.38753
C         -0.53427        0.01508       -6.08930
C          0.67603       -2.07918       -5.35422
H         -2.18846       -0.71382       -4.07417
H         -1.83795       -2.17751       -5.16333
H         -1.21091       -2.21025       -3.57815
H          0.38585        0.40467       -6.54977
H         -1.08925       -0.56506       -6.87424
H         -1.18412        0.86051       -5.79028
H          1.62401       -1.73511       -5.75923
H          0.84921       -2.80685       -4.52684
H          0.15386       -2.64815       -6.15569
