81
speciation394.ct
Na         2.44108        0.72458        3.01617
Mg         2.14853        4.65050       -1.12329
C          1.46126        2.44498        5.50426
C          1.18672        0.12467        5.81244
O          1.16491        1.20107        4.89414
C          2.84080        2.52723        6.17355
C          0.91722       -1.17736        5.07093
H          1.43109        3.21336        4.70320
H          0.66147        2.72387        6.22621
H          2.17639        0.00325        6.29790
H          0.38596        0.25701        6.57356
H          1.71940       -1.36237        4.32449
H          0.90659       -2.02216        5.79271
H         -0.06247       -1.13352        4.55140
H          3.63496        2.23174        5.45725
H          3.02498        3.56888        6.51030
H          2.89472        1.88799        7.07899
H          1.38276        6.90808       -2.17620
C          2.48742        7.50166       -0.41037
C          1.50086        6.58496       -1.12037
C          2.68859        7.06649        1.04387
H          3.45937        7.46604       -0.94853
H          2.09584        8.54207       -0.44161
H          1.71623        7.08567        1.58105
H          3.09025        6.02862        1.06743
C          3.66480        7.99523        1.76089
H          0.50811        6.62096       -0.62334
H          4.65199        7.98800        1.25149
H          3.26900        9.03346        1.77316
H          3.80204        7.65574        2.80903
C          4.34297       -0.93293        0.80958
C          5.03037       -0.83001       -0.38202
C          4.84903        0.46160       -0.81981
C          4.05186        1.08755        0.11470
N          3.74476        0.23782        1.09774
C          3.54735        2.49103        0.09048
N          2.78033        2.76346       -1.12614
C          1.49285        2.07738       -1.40141
H          5.59878       -1.61235       -0.86755
H          4.27493       -1.81727        1.43012
H          5.24262        0.87913       -1.72116
H          2.94208        2.70528        0.99327
H          4.42182        3.17640        0.10869
C          0.54851        2.18157       -0.18726
C          0.82600        2.80377       -2.58629
C          1.68749        0.60754       -1.82456
H          0.40090        3.25027        0.08637
H         -0.44433        1.74094       -0.41991
H          0.95793        1.64370        0.69167
H          1.45981        2.71688       -3.48666
H         -0.16506        2.35331       -2.81805
H          0.66192        3.87892       -2.36573
H          2.38563        0.54948       -2.68925
H          2.06890       -0.02508       -1.00601
H          0.71690        0.16362       -2.13573
Mg         3.93929        3.22391       -2.65232
C          6.41200        1.68346       -3.90606
C          7.63959        2.23127       -4.24594
C          7.56860        3.58010       -3.96138
C          6.30572        3.77851       -3.45828
N          5.60692        2.64425       -3.40800
C          5.62242        5.04637       -3.07755
N          4.24198        4.96725       -3.58532
C          4.02263        5.18989       -5.05139
H          8.48741        1.70837       -4.66879
H          6.12733        0.64644       -4.02005
H          8.33491        4.32902       -4.11000
H          6.17088        5.96262       -3.35995
H          5.53141        5.04071       -1.96930
C          4.75500        4.17539       -5.96316
C          2.52036        5.05688       -5.34182
C          4.45959        6.61886       -5.44311
H          4.44864        3.13428       -5.72494
H          4.50489        4.35976       -7.03070
H          5.85461        4.27151       -5.89810
H          1.93178        5.77355       -4.73225
H          2.30575        5.25379       -6.41646
H          2.17368        4.02915       -5.12181
H          3.92100        7.36954       -4.82754
H          5.55049        6.76168       -5.30941
H          4.23859        6.81512       -6.51492
