110
speciation2459.ct
Na         2.09969        5.38085        3.46382
Mg         3.85286        2.91262       -2.60183
C          0.04391        3.99566        5.37085
C         -0.60441        6.21538        4.91866
O          0.47525        5.32215        5.11915
C         -0.70380        3.33519        4.20598
C         -0.07324        7.60210        4.58729
H          0.95916        3.39599        5.56103
H         -0.55309        3.94579        6.30814
H         -1.24788        5.91412        4.06683
H         -1.20597        6.29458        5.85133
H          0.49182        7.57494        3.63109
H         -0.92542        8.30681        4.47398
H          0.59088        7.96765        5.39750
H         -0.10625        3.40543        3.27324
H         -0.87727        2.26468        4.44407
H         -1.70103        3.79413        4.04915
H          5.41966        0.80162       -1.52570
C          6.30474        1.98732        0.04612
C          5.60477        1.88704       -1.36377
C          5.67265        1.25967        1.27416
H          7.28792        1.47571       -0.06708
H          6.51549        3.04798        0.28774
H          5.55290        0.18013        1.04079
H          6.38345        1.31970        2.13447
C          4.33197        1.82741        1.72424
H          6.39394        2.17166       -2.08978
H          4.42230        2.78420        2.29030
H          3.79952        2.02037        0.84694
H          3.60748        1.08611        2.12787
C          4.86609        6.21835        1.80439
C          5.46715        6.23792        0.56380
C          4.70611        5.44959       -0.27459
C          3.67099        4.96799        0.47656
N          3.75914        5.44081        1.77280
C          2.48517        4.17898       -0.09028
N          2.86276        2.96299       -0.86590
C          1.76849        2.05917       -1.26189
H          6.33197        6.82201        0.27589
H          5.17497        6.79257        2.66256
H          4.85589        5.29313       -1.33164
H          1.83167        3.90943        0.76513
H          1.93290        4.85506       -0.77265
C          0.79372        2.81046       -2.18121
C          2.38251        0.85746       -2.00698
C          0.97295        1.43878       -0.07562
H          1.34645        3.29950       -3.00182
H          0.03503        2.12880       -2.61650
H          0.25582        3.60369       -1.62398
H          3.06017        0.27431       -1.34769
H          1.60790        0.17166       -2.41540
H          2.99598        1.19162       -2.83862
H          1.62880        0.81029        0.56301
H          0.46934        2.20086        0.54670
H          0.17501        0.76772       -0.47600
Na         4.96531        5.35609       -6.63470
Mg         1.91132        5.72198       -8.14356
C          7.24705        3.29902       -6.38870
C          8.14996        5.46023       -6.20688
O          7.16586        4.64669       -6.82630
C          6.98243        3.09752       -4.88761
C          8.01120        6.90711       -6.65905
H          6.46676        2.73471       -6.94117
H          8.22048        2.84733       -6.68163
H          8.06096        5.47366       -5.10213
H          9.16319        5.11240       -6.50977
H          7.04317        7.32591       -6.31173
H          8.83354        7.50865       -6.21240
H          8.07449        6.98228       -7.76402
H          6.01799        3.56342       -4.59647
H          6.94125        2.01141       -4.66348
H          7.79936        3.51497       -4.26359
H          0.43627        4.31832       -9.85517
C          1.72732        5.64543      -11.00962
C          0.77914        5.34977       -9.83253
C          2.97023        4.72065      -11.01236
H          1.16336        5.46828      -11.95228
H          2.06350        6.69987      -10.97777
H          2.66560        3.66249      -11.09619
H          3.56702        4.98184      -11.91125
C          3.83984        4.92093       -9.77677
H         -0.05498        6.07141       -9.88430
H          4.14040        5.98094       -9.67597
H          3.32510        4.58114       -8.86447
H          4.76306        4.30144       -9.87985
C          3.13064        1.74565       -5.30278
C          2.52468        1.78123       -6.54092
C          2.09943        3.06466       -6.72531
C          2.45167        3.76178       -5.58572
N          3.10094        2.95770       -4.67744
C          2.06330        5.22791       -5.41250
N          2.71733        6.08079       -6.43897
C          2.44554        7.53947       -6.38669
H          2.38521        0.95061       -7.22307
H          3.54519        0.84298       -4.88288
H          1.55379        3.42755       -7.58936
H          0.95628        5.30731       -5.52357
H          2.35907        5.52583       -4.39359
C          2.43884        8.10023       -4.94974
C          3.53874        8.21660       -7.22452
C          1.08293        7.88292       -7.04132
H          3.38704        7.87349       -4.42540
H          2.28044        9.20040       -4.96558
H          1.58848        7.67083       -4.37354
H          3.49965        7.83594       -8.26996
H          3.40350        9.31822       -7.25746
H          4.54259        7.98571       -6.81369
H          1.03677        7.55265       -8.09939
H          0.22910        7.43583       -6.49241
H          0.93550        8.98699       -7.05852
