96
speciation1014.ct
Na         1.42183        1.74642        0.33957
Mg         3.58434       -0.03048       -1.70020
C          0.07852        3.25683        2.80099
C          2.43973        3.57772        2.72793
O          1.33708        2.78423        2.30022
C         -0.24437        4.74644        2.57440
C          2.71045        3.50161        4.23619
H         -0.71993        2.66011        2.32252
H          0.00145        3.02512        3.88596
H          3.35620        3.21669        2.25111
H          2.35896        4.62485        2.37671
H          2.89733        2.45191        4.54695
H          3.61189        4.10662        4.47509
H          1.86808        3.91721        4.82513
H         -0.27795        4.99926        1.50251
H         -1.24829        4.97135        2.98854
H          0.46829        5.41695        3.09791
H          1.94560       -1.63833       -3.29472
C          3.90489       -2.47332       -3.65690
C          2.98841       -1.27192       -3.41047
C          3.95230       -3.41428       -2.45790
H          3.57615       -3.03434       -4.56033
H          4.92010       -2.10391       -3.84470
H          4.20898       -2.83780       -1.55117
H          2.95009       -3.88184       -2.31296
C          5.00809       -4.49733       -2.65300
H          3.00223       -0.63567       -4.32149
H          4.80084       -5.08984       -3.56890
H          6.01479       -4.03277       -2.74330
H          5.01505       -5.17786       -1.77612
C         -1.63312        0.89397       -0.05964
C         -2.22546       -0.33069       -0.29686
C         -1.20535       -1.25803       -0.36043
C         -0.02746       -0.56082       -0.15669
N         -0.30382        0.75023        0.02710
C          1.36536       -1.18026       -0.13513
N          2.47353       -0.19336        0.05445
C          3.30972       -0.43732        1.26798
H         -3.28608       -0.53256       -0.41029
H         -2.15454        1.84120        0.04650
H         -1.30767       -2.32492       -0.52241
H          1.53148       -1.71738       -1.08492
H          1.35527       -1.96284        0.64680
C          4.06182       -1.78564        1.24184
C          4.37125        0.64811        1.33110
C          2.45012       -0.35100        2.54946
H          4.73342       -1.83656        0.36118
H          4.70002       -1.87671        2.14787
H          3.38006       -2.65719        1.22347
H          3.89283        1.60732        1.13688
H          4.91052        0.67447        2.30205
H          5.13851        0.45196        0.57211
H          1.83994        0.55931        2.54454
H          1.75934       -1.20866        2.65524
H          3.09428       -0.33266        3.45475
Mg         7.00721       -1.88013       -5.17925
C          1.25938        4.33274       -0.94669
C          1.72048        2.63906       -2.56006
O          1.81528        3.05794       -1.20937
C         -0.16816        4.58192       -1.45881
C          2.66072        3.45598       -3.44691
H          1.24634        4.41361        0.14998
H          1.94862        5.13226       -1.27411
H          2.04105        1.57905       -2.61666
H          0.67740        2.65679       -2.94995
H          3.69534        3.37691       -3.05558
H          2.62645        3.08176       -4.48808
H          2.37154        4.52721       -3.45484
H         -0.85542        3.77953       -1.12143
H         -0.52983        5.55431       -1.06186
H         -0.18618        4.65902       -2.56565
C          5.30731        2.29692       -1.08213
C          6.58589        2.80679       -1.03439
C          7.38345        1.91653       -1.70335
C          6.55252        0.90046       -2.13932
N          5.28107        1.10331       -1.71533
C          7.01939       -0.24352       -2.97478
N          6.34783       -0.27173       -4.28806
C          6.51012        0.85145       -5.24489
H          6.89908        3.72053       -0.55323
H          4.44513        2.76425       -0.63067
H          8.45006        1.99971       -1.86290
H          8.11939       -0.20739       -3.11820
H          6.79321       -1.18681       -2.43442
C          7.99337        1.15860       -5.52474
C          5.83985        0.41431       -6.55866
C          5.77786        2.12425       -4.77730
H          8.51072        0.25438       -5.90954
H          8.08487        1.96671       -6.28402
H          8.51278        1.50427       -4.60736
H          4.76530        0.18444       -6.38687
H          5.90313        1.22180       -7.32214
H          6.32944       -0.49234       -6.97033
H          4.73095        1.86774       -4.51837
H          6.26287        2.61343       -3.91911
H          5.76935        2.89602       -5.57555
