80
speciation980.ct
Na         1.53303        1.24051        0.05476
Mg         6.51871        3.65710       -0.30394
H          7.43387        5.51780       -1.93377
C          5.48319        4.96847       -2.78281
C          6.80688        4.61744       -2.09375
C          4.55914        5.88825       -1.96686
H          5.69905        5.44101       -3.76562
H          4.93844        4.01780       -2.96883
H          3.61631        6.02566       -2.54230
H          4.29857        5.40999       -0.99926
C          5.15263        7.27388       -1.71206
H          7.36367        3.91173       -2.74435
H          6.06778        7.20426       -1.09001
H          5.39530        7.77401       -2.67443
H          4.41201        7.89816       -1.16648
C          5.88729        5.20729        1.95343
C          4.94706        5.31935        2.94019
C          4.00576        4.31757        2.70646
C          4.40801        3.59701        1.58712
N          5.53351        4.19656        1.14753
C          3.61100        2.58784        0.72156
N          3.62579        1.08460        0.56056
C          3.40607       -0.16761        1.36382
H          4.96041        6.07531        3.71749
H          6.76740        5.83421        1.81552
H          3.10828        4.18529        3.29263
H          4.05929        2.85523       -0.26390
H          2.59891        3.00120        0.61155
C          2.48454       -0.03988        2.58513
C          2.79308       -1.21359        0.38504
C          4.74237       -0.73470        1.81179
H          1.46595        0.28247        2.30167
H          2.38354       -1.04930        3.06111
H          2.91163        0.63548        3.34816
H          3.46131       -1.37504       -0.48818
H          2.66834       -2.20664        0.88378
H          1.79925       -0.91388        0.01307
H          5.38768       -0.80098        0.92290
H          5.19530       -0.09237        2.58310
H          4.63686       -1.76217        2.23160
Na         6.22472        0.42213       -3.61569
Mg         4.47777        0.47986       -1.16619
H          3.57523        0.41206       -3.76912
C          1.68773        1.07997       -2.95703
C          2.99155        0.25794       -2.83676
C          1.94400        2.58586       -3.07278
H          1.12697        0.74818       -3.86240
H          1.04261        0.87562       -2.08026
H          2.51184        2.93425       -2.19093
H          2.53824        2.79552       -3.99256
C          0.63283        3.37794       -3.15147
H          2.69276       -0.81274       -2.81864
H          0.04148        3.08673       -4.04616
H          0.02117        3.20636       -2.23985
H          0.85634        4.46546       -3.22034
C          7.22904        2.22457        2.28898
C          7.58500        0.96917        2.68801
C          7.67574        0.21241        1.54561
C          7.34467        1.04374        0.47042
N          7.07914        2.26237        0.94692
C          7.29718        0.83689       -1.03502
N          6.39427       -0.20096       -1.57294
C          7.00482       -1.55729       -1.81757
H          7.74730        0.63490        3.70562
H          7.06847        3.05493        2.96176
H          7.93450       -0.82028        1.60376
H          8.31811        0.77967       -1.41973
H          6.91297        1.78696       -1.45485
C          7.40832       -2.29284       -0.53630
C          5.98711       -2.43574       -2.56171
C          8.28695       -1.47315       -2.69822
H          6.56966       -2.41505        0.17358
H          7.77731       -3.31139       -0.76779
H          8.28549       -1.79236       -0.10415
H          5.71225       -1.98249       -3.53562
H          6.42554       -3.44017       -2.76776
H          5.06996       -2.58093       -1.95545
H          8.08273       -0.99912       -3.67758
H          9.11821       -0.93054       -2.20534
H          8.70228       -2.48743       -2.87910
