68
speciation86.ct
Na         2.40784        1.33711        3.52772
Mg         1.41060        1.92225       -2.06371
C          2.65797        2.61257        6.26227
C          0.57437        1.65838        6.22658
O          1.54055        2.33477        5.43426
C          3.70079        3.41733        5.50379
C         -0.61536        1.19702        5.40336
H          2.35138        3.23290        7.13671
H          3.13615        1.66999        6.61542
H          1.00267        0.77079        6.74814
H          0.17227        2.37147        6.98366
H         -0.31107        0.39715        4.69833
H         -1.38648        0.78719        6.09382
H         -1.05818        2.04897        4.84756
H          3.26467        4.37266        5.14409
H          4.54917        3.64744        6.18562
H          4.08830        2.83646        4.64149
C          3.51263       -0.97886        1.32638
C          3.94798       -1.13906        0.01913
C          3.97448        0.12260       -0.54024
C          3.55553        0.98637        0.45076
N          3.29382        0.31796        1.58009
C          3.51862        2.46282        0.41851
N          2.55466        3.16195       -0.46938
C          2.81386        4.67259       -0.33926
H          4.22335       -2.06800       -0.46004
H          3.36189       -1.77940        2.03844
H          4.29644        0.38069       -1.53995
H          3.32191        2.75689        1.46442
H          4.55974        2.69700        0.15412
C          4.30939        5.07092       -0.63026
C          1.99020        5.59097       -1.27151
C          2.44272        5.19482        1.07289
H          4.62712        4.69710       -1.63031
H          4.44348        6.17321       -0.62194
H          5.02026        4.70787        0.13595
H          0.90735        5.33896       -1.27520
H          2.06764        6.66201       -0.97338
H          2.44318        5.67420       -2.26882
H          1.37131        4.99535        1.27423
H          3.05665        4.76062        1.88537
H          2.62602        6.28366        1.15670
Na         2.79737        2.21219       -2.26501
C         -1.58505        0.57656       -3.01244
C         -1.95159       -0.09764       -4.18242
C         -0.79713       -0.31121       -4.89000
C          0.20521        0.23298       -4.11733
N         -0.24178        0.80629       -2.98891
C          1.59571        0.42102       -4.48611
N          1.94897        1.77921       -4.07831
C          1.29228        2.95943       -4.70489
H         -2.94962       -0.34696       -4.53465
H         -2.29729        0.96204       -2.29936
H         -0.69881       -0.75261       -5.87967
H          1.78828        0.22855       -5.56199
H          2.19967       -0.28549       -3.87662
C         -0.26728        3.06813       -4.63186
C          1.78356        4.09328       -3.88218
C          1.74291        3.12876       -6.14547
H         -0.64935        3.05490       -3.58666
H         -0.60630        4.05158       -5.01926
H         -0.78547        2.31482       -5.25135
H          2.89478        4.11120       -3.84674
H          1.38130        5.07308       -4.20768
H          1.39679        3.86644       -2.86780
H          2.85042        3.16546       -6.18966
H          1.36833        2.28591       -6.75917
H          1.33068        4.07951       -6.54901
