95
speciation1235.ct
Na         1.40508        2.05220       -0.09671
Mg         6.96826       -4.51393       -2.85320
C          1.15705        4.96589        0.44888
C          3.20446        4.33005       -0.64000
O          2.12703        3.96126        0.19989
C          0.56603        5.62704       -0.79812
C          4.18200        5.27436        0.06005
H          0.32058        4.46819        0.98349
H          1.55285        5.72494        1.15856
H          3.76797        3.40345       -0.87861
H          2.86612        4.72934       -1.61615
H          4.56668        4.80757        0.99208
H          5.04095        5.47914       -0.61475
H          3.69486        6.23859        0.30640
H          0.19202        4.85241       -1.49613
H         -0.27337        6.28646       -0.49539
H          1.32246        6.26661       -1.29986
H          8.74256       -2.69528       -2.21692
C         10.05481       -4.26309       -1.59888
C          8.63450       -3.68883       -1.73752
C         10.77658       -4.45761       -2.94217
H         10.65246       -3.53704       -1.00083
H         10.02988       -5.21944       -1.03771
H         10.80224       -3.49459       -3.49588
H         11.82195       -4.77332       -2.73500
C         10.10831       -5.53268       -3.78793
H          8.22871       -3.52753       -0.71660
H         10.13884       -6.49790       -3.24288
H          9.05729       -5.25275       -4.00313
H         10.65347       -5.65294       -4.74517
C         -1.67843        1.21638       -0.09104
C         -2.36707        0.01246       -0.13863
C         -1.40140       -0.97635       -0.19082
C         -0.17907       -0.33160       -0.16343
N         -0.35068        0.98932       -0.10141
C          1.17053       -0.96669       -0.19800
N          2.24500        0.03300       -0.00400
C          2.73100        0.16132        1.41635
H         -3.44297       -0.12941       -0.13511
H         -2.13741        2.19819       -0.03866
H         -1.57704       -2.04422       -0.24311
H          1.29680       -1.45501       -1.18448
H          1.20055       -1.76885        0.56710
C          3.37228       -1.12329        1.99635
C          3.81216        1.25109        1.46210
C          1.57520        0.58520        2.36712
H          3.69988       -0.92296        3.04445
H          4.26556       -1.43350        1.41940
H          2.66693       -1.97198        2.07562
H          3.40554        2.22429        1.16360
H          4.21557        1.37633        2.49126
H          4.65094        0.99375        0.78235
H          1.08632        1.52417        2.03754
H          0.79937       -0.20573        2.43982
H          1.95221        0.76997        3.39610
Na         4.02147       -2.61737       -1.77597
Mg         3.38218        0.08335       -1.63630
H          8.05117       -7.09640       -2.60987
C          6.35995       -7.78296       -3.74100
C          6.98784       -6.80463       -2.71261
C          7.00480       -7.67455       -5.13114
H          6.49500       -8.82909       -3.38078
H          5.26784       -7.60441       -3.81529
H          6.88407       -6.63756       -5.50517
H          8.08033       -7.91479       -5.07449
C          6.33344       -8.60645       -6.14860
H          6.51510       -7.02022       -1.72894
H          6.46006       -9.66949       -5.85463
H          5.24870       -8.37969       -6.23574
H          6.79837       -8.46120       -7.14815
C          4.19916        1.12173       -4.13046
C          5.03841        1.13440       -5.21741
C          5.95419        0.11265       -5.01640
C          5.59409       -0.50079       -3.81950
N          4.51935        0.13370       -3.26860
C          6.34166       -1.69800       -3.26667
N          5.57623       -2.96445       -3.20563
C          4.97979       -3.48788       -4.45391
H          5.03542        1.80992       -6.05991
H          3.38675        1.81239       -3.97942
H          6.75779       -0.18186       -5.67695
H          7.25146       -1.86875       -3.88073
H          6.69328       -1.44428       -2.24620
C          6.10427       -3.83778       -5.44866
C          4.22421       -4.75655       -4.05158
C          3.93719       -2.54467       -5.12507
H          6.86205       -4.48295       -4.96126
H          5.71114       -4.34528       -6.35091
H          6.63309       -2.91852       -5.78060
H          3.39253       -4.50462       -3.35833
H          3.79886       -5.26526       -4.94639
H          4.89568       -5.45092       -3.52961
H          3.46356       -1.85813       -4.40194
H          4.37854       -1.97932       -5.97574
H          3.08543       -3.11274       -5.56202
