81
speciation378.ct
Na         1.12457        1.34225        0.13124
Mg         2.67240        7.36251        0.57556
C         -0.42933        1.28615        2.88105
C          1.50322        2.61494        3.26402
O          0.70516        1.94152        2.27899
C         -1.42182        2.24999        3.54893
C          2.00269        1.77097        4.47137
H         -1.00133        0.78331        2.09409
H         -0.13684        0.46448        3.56500
H          2.39329        3.04850        2.76889
H          0.94032        3.48712        3.65057
H          2.76122        1.01939        4.16109
H          2.47600        2.44723        5.21720
H          1.19713        1.25784        5.03481
H         -1.75340        3.02034        2.81894
H         -2.31500        1.69165        3.90304
H         -0.98920        2.75248        4.43845
H          4.65943        7.91586        2.15753
C          3.00362        8.95153        3.14061
C          3.74800        8.49174        1.89067
C          2.48612        7.77780        3.97266
H          3.69539        9.56856        3.75504
H          2.14518        9.58505        2.82803
H          1.77980        7.17313        3.35977
H          3.33655        7.12961        4.28108
C          1.76511        8.27639        5.22196
H          4.05761        9.39442        1.32268
H          2.46050        8.86046        5.86064
H          0.90453        8.92097        4.94239
H          1.38616        7.41303        5.80862
C         -1.80507        0.21993       -0.35010
C         -2.32210       -1.06128       -0.31818
C         -1.25462       -1.91820       -0.12346
C         -0.12809       -1.12343       -0.04195
N         -0.47327        0.16912       -0.17961
C          1.29098       -1.61966        0.19255
N          2.31512       -0.53571        0.11097
C          3.17722       -0.57547       -1.09653
H         -3.36443       -1.33831       -0.39888
H         -2.37474        1.13587       -0.43127
H         -1.29777       -2.99566       -0.03489
H          1.47923       -2.42214       -0.54468
H          1.34317       -2.09366        1.19355
C          2.31154       -0.48124       -2.35035
C          4.12499        0.63619       -0.99997
C          4.05253       -1.84539       -1.19717
H          1.55264        0.26425       -2.12531
H          2.90952       -0.23385       -3.25429
H          1.74494       -1.41196       -2.55373
H          4.76646        0.53841       -0.09785
H          4.78469        0.70101       -1.89000
H          3.55889        1.58242       -0.90829
H          4.69108       -1.96739       -0.30091
H          3.45244       -2.76908       -1.33309
H          4.71231       -1.77723       -2.09388
Mg         2.42614        7.13903       -2.25317
C          1.37384        2.51136       -3.12670
C          1.82423        3.52186       -3.94153
C          2.23753        4.52199       -3.10808
C          1.99097        4.08553       -1.80662
N          1.49943        2.82435       -1.80179
C          2.23843        4.91004       -0.60905
N          1.62317        6.26095       -0.70732
C          0.19053        6.50848       -0.82471
H          1.85785        3.53324       -5.02214
H          1.01005        1.58887       -3.55400
H          2.62531        5.48025       -3.42129
H          1.91553        4.38354        0.31143
H          3.33996        5.06242       -0.53831
C         -0.52999        5.87173        0.36941
C          0.06992        8.04107       -0.85324
C         -0.39440        5.98653       -2.15897
H         -0.06139        6.20468        1.31967
H         -1.61145        6.11469        0.37329
H         -0.42639        4.76550        0.31015
H          0.61834        8.43533       -1.74172
H         -0.98418        8.37656       -0.93108
H          0.54095        8.49488        0.04472
H          0.22699        6.32873       -3.01570
H         -0.46842        4.88171       -2.18366
H         -1.41801        6.38674       -2.32266
