110
speciation1872.ct
Na        -0.80039       -6.00500        0.64190
Mg        -0.39677       -1.21073       -4.75894
C          1.87555       -4.52199        0.40777
C          2.37466       -6.85389        0.61636
O          1.37408       -5.83361        0.63228
C          2.81099       -4.35527       -0.80565
C          3.34429       -6.76246        1.80715
H          0.99957       -3.88315        0.20405
H          2.34997       -4.12633        1.32976
H          1.88350       -7.84859        0.65589
H          2.93723       -6.86768       -0.34035
H          2.80075       -6.92115        2.76195
H          4.13256       -7.54174        1.71518
H          3.86212       -5.78285        1.84197
H          2.33473       -4.74830       -1.72837
H          3.03775       -3.27771       -0.95098
H          3.78548       -4.86279       -0.64392
H          1.54028       -3.19391       -4.34916
C          0.04351       -4.52472       -5.07880
C          0.44046       -3.26018       -4.28702
C          0.32928       -4.39726       -6.57278
H          0.57459       -5.41252       -4.66587
H         -1.01953       -4.73559       -4.96877
H         -0.17517       -3.48933       -6.96651
H          1.42303       -4.31347       -6.73049
C         -0.21175       -5.61158       -7.33929
H          0.20330       -3.45272       -3.21869
H          0.24861       -6.55431       -6.97313
H         -1.31650       -5.68578       -7.22313
H          0.01459       -5.50014       -8.42025
C         -3.51052       -5.00607        2.13557
C         -4.32361       -3.97202        2.55714
C         -3.76333       -2.81600        2.07540
C         -2.63835       -3.19490        1.36381
N         -2.46013       -4.54619        1.40994
C         -1.69344       -2.21860        0.73339
N         -2.36212       -1.18484       -0.11484
C         -1.44609       -0.22102       -0.71697
H         -5.21669       -4.04232        3.16748
H         -3.68441       -6.04098        2.38627
H         -4.12835       -1.81360        2.24207
H         -1.18619       -1.72753        1.58309
H         -0.97559       -2.82986        0.16233
C         -0.43667       -0.95700       -1.60990
C         -2.29679        0.71251       -1.59268
C         -0.72500        0.60939        0.36347
H         -0.96681       -1.55291       -2.38512
H          0.20691       -0.22246       -2.07733
H          0.24669       -1.62413       -1.04904
H         -3.04686        1.24790       -0.97275
H         -1.66279        1.46041       -2.11296
H         -2.84620        0.13069       -2.36402
H         -1.47256        1.05708        1.05262
H         -0.02359       -0.01092        0.95892
H         -0.12718        1.42217       -0.09730
Na        -3.29961       -2.16398       -2.05889
Mg        -3.69990       -0.21414        0.92115
C         -2.03651       -8.65012        1.21166
C         -0.86481       -8.75420       -0.80904
O         -1.53537       -7.91539        0.10983
C         -0.94199       -9.19927        2.13556
C         -0.44571       -7.96389       -2.03842
H         -2.67119       -7.97064        1.80547
H         -2.71923       -9.46778        0.87841
H          0.04781       -9.21311       -0.37814
H         -1.55504       -9.55587       -1.17323
H          0.28896       -7.18399       -1.74949
H          0.02847       -8.64745       -2.77676
H         -1.33023       -7.48817       -2.51038
H         -0.26173       -8.37918        2.44540
H         -1.41076       -9.64606        3.03773
H         -0.35695      -10.00095        1.64057
H          0.95795        1.13397       -5.31544
C          2.29787        0.32643       -3.80872
C          0.88697        0.55890       -4.37009
C          3.13294       -0.50790       -4.77159
H          2.80093        1.30514       -3.63299
H          2.23739       -0.19865       -2.83293
H          2.60562       -1.45223       -4.97727
H          3.25822        0.03684       -5.73089
C          4.50113       -0.83707       -4.18133
H          0.34641        1.22659       -3.66302
H          5.08498        0.09126       -4.00851
H          4.38685       -1.38127       -3.21809
H          5.05714       -1.48807       -4.88768
C         -2.76782        0.60325       -5.48901
C         -4.11841        0.57389       -5.78793
C         -4.49902       -0.74163       -5.71869
C         -3.36490       -1.45240       -5.37543
N         -2.29782       -0.63983       -5.24285
C         -3.33998       -2.91395       -5.12305
N         -4.23710       -3.14312       -4.00293
C         -4.45249       -4.49920       -3.44051
H         -4.76174        1.41308       -6.02146
H         -2.16606        1.50671       -5.45056
H         -5.49501       -1.13748       -5.87925
H         -2.32380       -3.17242       -4.83392
H         -3.67329       -3.45826       -6.03094
C         -3.16681       -5.09499       -2.83146
C         -5.46195       -4.34600       -2.28668
C         -5.03875       -5.45382       -4.49289
H         -2.69611       -4.39700       -2.10630
H         -3.39974       -6.03710       -2.28725
H         -2.44166       -5.36136       -3.60547
H         -6.41398       -3.90093       -2.64661
H         -5.68987       -5.32967       -1.82029
H         -5.05517       -3.68396       -1.49018
H         -6.00013       -5.05341       -4.88042
H         -4.33417       -5.58897       -5.33964
H         -5.22660       -6.45089       -4.04080
