96
speciation1144.ct
Na         0.65751       -1.13777        0.18284
Mg         0.01474       -1.09600       -3.70227
C         -0.86035       -3.28496       -1.87834
C         -0.60881       -4.31030        0.22495
O         -0.21928       -3.20186       -0.60313
C         -2.39713       -3.34527       -1.85601
C         -0.20324       -5.72378       -0.30620
H         -0.59294       -2.38214       -2.42799
H         -0.45445       -4.12670       -2.48711
H         -0.13866       -4.19100        1.21796
H         -1.68717       -4.28663        0.46542
H          0.51846       -6.21236        0.38301
H         -1.09945       -6.38617       -0.35062
H          0.27490       -5.73186       -1.30896
H         -2.79553       -2.48604       -1.29213
H         -2.81508       -3.30225       -2.88117
H         -2.76779       -4.29871       -1.42359
H         -1.92242        1.05075       -3.18273
C         -0.12264        2.10087       -2.72834
C         -0.90375        0.77437       -2.83793
C          0.15158        2.84306       -4.01585
H         -0.66919        2.78916       -2.03275
H          0.88034        1.87332       -2.33773
H         -0.80889        3.10397       -4.50538
H          0.68783        3.78240       -3.75684
C          1.05507        1.99789       -4.90073
H         -1.11601        0.34120       -1.84857
H          2.01463        1.79619       -4.37542
H          0.56949        1.03661       -5.13346
H          1.26440        2.54333       -5.83401
C         -2.45783       -0.84108        1.11177
C         -3.19346        0.31917        1.30924
C         -2.33909        1.37636        1.08462
C         -1.12773        0.81530        0.76204
N         -1.20208       -0.52083        0.75869
C          0.11382        1.54572        0.36230
N          1.27020        1.18570        1.15609
C          2.43209        2.14786        0.99420
H         -4.24052        0.39003        1.56595
H         -2.83459       -1.85140        1.18958
H         -2.57092        2.43177        1.12442
H         -0.09873        2.62342        0.32511
H          0.37558        1.12220       -0.58015
C          2.06680        3.59835        1.41096
C          3.57545        1.68621        1.90137
C          3.02463        2.24937       -0.43350
H          1.66213        3.63708        2.44274
H          2.95809        4.26314        1.35504
H          1.33874        4.07469        0.72333
H          3.94318        0.69444        1.57995
H          4.43473        2.39394        1.84800
H          3.23859        1.63003        2.95226
H          3.39963        1.28193       -0.80020
H          2.32862        2.71029       -1.13891
H          3.91202        2.92489       -0.44278
Mg         2.00077       -0.31650        0.61243
C         -1.65845       -2.78447       -5.28345
C         -1.81378       -0.45458       -5.67627
O         -1.60824       -1.47985       -4.71707
C         -0.75556       -3.00850       -6.49667
C         -3.22338       -0.43451       -6.26309
H         -1.32751       -3.50490       -4.51879
H         -2.70532       -3.08457       -5.51194
H         -1.70161        0.52413       -5.19585
H         -1.03178       -0.46758       -6.45666
H         -3.97789       -0.31918       -5.45403
H         -3.30231        0.43105       -6.95185
H         -3.43300       -1.35468       -6.84014
H          0.26144       -2.63342       -6.28358
H         -0.71975       -4.09484       -6.72827
H         -1.14024       -2.48061       -7.38943
C          1.84989       -3.41984       -4.02784
C          2.99910       -4.11320       -3.71945
C          3.64037       -3.39257       -2.75859
C          2.85639       -2.28981       -2.49275
N          1.74512       -2.27632       -3.31466
C          3.18745       -1.32082       -1.45498
N          2.63378       -1.74005       -0.16350
C          3.20230       -2.62020        0.86562
H          3.31759       -5.05468       -4.14016
H          1.12569       -3.76644       -4.73135
H          4.57509       -3.65722       -2.27688
H          2.62495       -0.41337       -1.74775
H          4.26849       -1.05837       -1.40476
C          4.69924       -2.38771        1.09767
C          2.43294       -2.29250        2.16774
C          2.95538       -4.07834        0.49105
H          4.90270       -1.34042        1.39140
H          5.05186       -3.05082        1.91900
H          5.27678       -2.62612        0.18323
H          1.33576       -2.41309        2.02698
H          2.74383       -2.94687        3.00776
H          2.60882       -1.23791        2.47523
H          1.90721       -4.20802        0.22049
H          3.55557       -4.38362       -0.37780
H          3.19059       -4.75513        1.33662
