83
speciation693.ct
Na        -0.33559        6.53089        1.04296
Mg         4.38597        4.73976        0.36843
C          6.88845        5.54345       -0.52883
C          6.89512        3.18306       -0.36526
O          6.35088        4.40795        0.14416
C          6.82905        5.54416       -2.06037
C          8.38607        2.98050       -0.04620
H          6.30179        6.41269       -0.19870
H          7.93006        5.73638       -0.17882
H          6.37789        2.32779        0.09150
H          6.73449        3.07469       -1.45657
H          8.54605        2.90710        1.04943
H          8.73544        2.03378       -0.51574
H          9.01904        3.79241       -0.45780
H          5.78938        5.37750       -2.40275
H          7.17616        6.53267       -2.43194
H          7.50827        4.78926       -2.50555
C          4.15412        2.37803        2.14275
C          3.46882        1.80188        3.18689
C          2.45755        2.66611        3.51279
C          2.52897        3.70969        2.61571
N          3.61986        3.57232        1.81293
C          1.54192        4.84275        2.58659
N          0.43851        4.62069        1.62734
C         -0.66591        3.66401        1.93026
H          3.68089        0.85258        3.65793
H          5.00536        1.94111        1.66512
H          1.72041        2.52823        4.29239
H          2.08182        5.74852        2.25556
H          1.16982        5.10857        3.59947
C         -1.25861        3.90029        3.33172
C         -1.78463        3.89994        0.89350
C         -0.23997        2.18533        1.76831
H         -1.62916        4.94319        3.42503
H         -2.10748        3.20564        3.51219
H         -0.50731        3.71023        4.12404
H         -1.42806        3.68838       -0.13287
H         -2.64565        3.22117        1.08542
H         -2.15468        4.94434        0.93327
H          0.22384        1.99588        0.77917
H          0.44234        1.83543        2.54223
H         -1.12087        1.51638        1.85724
Na         7.56132        7.45869        1.34008
C          2.21742        4.84328       -1.75122
C          3.63575        2.94716       -1.65464
O          3.50612        4.33992       -1.37955
C          1.00346        3.96008       -1.44873
C          3.68695        2.64033       -3.15522
H          2.03639        5.76911       -1.20180
H          2.21060        5.11587       -2.82813
H          4.56919        2.58783       -1.21892
H          2.86753        2.34411       -1.13482
H          4.56761        3.12965       -3.61902
H          3.76414        1.54159       -3.29812
H          2.76761        2.98140       -3.67445
H          1.05888        3.66636       -0.39913
H          0.07139        4.52934       -1.64802
H          0.96920        3.03802       -2.06187
C          3.38509        7.62397        0.46605
C          3.31039        8.79711        1.17946
C          4.05770        8.61435        2.31140
C          4.54992        7.33097        2.25147
N          4.12687        6.69277        1.11003
C          5.40115        6.72371        3.33640
N          6.75052        7.32285        3.29887
C          7.76467        6.78335        4.24531
H          2.76057        9.68950        0.90097
H          2.89422        7.47887       -0.47403
H          4.20796        9.33862        3.10106
H          4.92819        6.92748        4.32477
H          5.44853        5.63724        3.16757
C          7.69795        5.24860        4.40060
C          9.16069        7.14077        3.69675
C          7.59171        7.45974        5.61572
H          7.80592        4.74623        3.41442
H          8.51593        4.89160        5.06506
H          6.73907        4.92351        4.86935
H          9.27836        8.23968        3.57138
H          9.96000        6.78535        4.38502
H          9.33216        6.65701        2.71053
H          7.66383        8.56582        5.51510
H          6.60646        7.21071        6.05867
H          8.38519        7.12486        6.31949
