96
speciation1293.ct
Na         5.38692        3.01330        1.60410
Mg         3.47055        2.47912       -2.97119
C          7.04198        0.86032        2.79786
C          4.77416        0.47880        3.26539
O          5.76336        1.44939        2.96738
C          7.15489       -0.01213        1.54439
C          3.47864        1.16660        3.66147
H          7.77328        1.68991        2.71201
H          7.34745        0.29034        3.70569
H          4.57095       -0.18074        2.39541
H          5.08534       -0.13453        4.14431
H          3.10662        1.78379        2.82224
H          2.71514        0.40030        3.92017
H          3.64124        1.82436        4.53962
H          6.82532        0.55796        0.65178
H          8.21194       -0.32460        1.40688
H          6.54683       -0.93521        1.64271
H          6.15624        3.41700       -2.44384
C          6.13451        1.26111       -2.50898
C          5.51940        2.57536       -2.08259
C          6.14800        1.24518       -4.02717
H          7.16511        1.13335       -2.10363
H          5.48997        0.44793       -2.11170
H          5.12578        1.45687       -4.37776
H          6.83765        2.03545       -4.40051
C          6.54858       -0.10185       -4.58871
H          5.55527        2.59423       -0.97348
H          7.57655       -0.36546       -4.26870
H          5.83073       -0.87620       -4.24284
H          6.50592       -0.04381       -5.69655
C          5.74957        5.69612       -0.05700
C          5.15072        6.59388       -0.92415
C          3.89941        6.09872       -1.18994
C          3.79317        4.91703       -0.48404
N          4.91710        4.67272        0.22277
C          2.58046        4.04598       -0.47803
N          2.86166        2.71313       -1.05612
C          1.72965        1.76500       -1.00461
H          5.57125        7.51418       -1.31879
H          6.74953        5.81160        0.34994
H          3.14580        6.54639       -1.82594
H          2.26119        3.96657        0.58034
H          1.79181        4.55780       -1.06184
C          0.49031        2.33219       -1.73207
C          2.19336        0.48623       -1.71929
C          1.36217        1.38607        0.44181
H          0.75897        2.64693       -2.76134
H         -0.31676        1.57126       -1.78343
H          0.06697        3.20936       -1.19983
H          3.07891        0.05555       -1.20522
H          1.38460       -0.27474       -1.73541
H          2.49241        0.69977       -2.76282
H          2.24515        0.94337        0.94347
H          1.00056        2.25342        1.02912
H          0.54908        0.62944        0.44705
Mg        -2.21026       -0.13283       -5.59184
C         -4.60577        0.73575       -4.58222
C         -4.33175       -1.62815       -4.70174
O         -4.08674       -0.36907       -5.31454
C         -4.12136        0.83779       -3.12763
C         -5.81565       -2.02149       -4.69511
H         -4.26321        1.65449       -5.10585
H         -5.71204        0.77235       -4.63224
H         -3.80203       -2.40078       -5.29445
H         -3.89949       -1.68252       -3.68358
H         -6.20280       -2.10123       -5.73137
H         -5.93182       -3.00792       -4.19675
H         -6.43606       -1.29501       -4.13011
H         -3.01304        0.79879       -3.09234
H         -4.46713        1.79724       -2.68976
H         -4.55124        0.02763       -2.50249
C          3.50680        2.76693       -5.93568
C          2.94758        2.59310       -7.18282
C          1.76373        1.93853       -6.98990
C          1.64902        1.69324       -5.63449
N          2.72443        2.24110       -4.95580
C          0.45404        0.95748       -5.03727
N         -0.24317        0.02700       -5.97547
C          0.36698       -1.29587       -6.30757
H          3.35400        2.91076       -8.13562
H          4.45173        3.26139       -5.75843
H          1.06074        1.65910       -7.76451
H          0.66951        0.47844       -4.07026
H         -0.27642        1.75963       -4.80500
C          0.85225       -2.06471       -5.06264
C         -0.70520       -2.16269       -7.00592
C          1.53324       -1.13286       -7.29894
H          0.00954       -2.26727       -4.36885
H          1.28697       -3.04364       -5.36959
H          1.64908       -1.51075       -4.52776
H         -1.07641       -1.67753       -7.93417
H         -0.28763       -3.15700       -7.28716
H         -1.57096       -2.34219       -6.33498
H          1.18552       -0.60616       -8.21437
H          2.37705       -0.58287       -6.84271
H          1.92764       -2.12198       -7.61654
