95
speciation1532.ct
Na         1.05646        1.79334        0.14270
Mg         3.43143       -0.49639       -1.51162
C          5.44813       -2.33465       -2.24586
C          3.37293       -3.32606       -1.66257
O          4.25340       -2.23428       -1.47383
C          5.29696       -2.53733       -3.75931
C          3.95980       -4.63937       -1.14361
H          5.99488       -1.40180       -2.09993
H          6.12286       -3.10098       -1.81555
H          2.47769       -3.15136       -1.04804
H          3.02938       -3.40869       -2.71482
H          4.23307       -4.52781       -0.07264
H          3.20698       -5.44722       -1.24437
H          4.85693       -4.94096       -1.72191
H          4.72230       -1.72002       -4.21181
H          6.30196       -2.51885       -4.22934
H          4.83270       -3.51248       -4.00282
H          1.81658        0.56849       -3.67100
C          1.05997       -1.22916       -4.31204
C          2.18308       -0.46037       -3.59051
C         -0.33741       -1.09214       -3.69109
H          0.98737       -0.82361       -5.35062
H          1.33377       -2.30049       -4.40496
H         -1.05675       -1.63265       -4.34351
H         -0.36575       -1.58049       -2.70937
C         -0.81095        0.36018       -3.55541
H          3.01228       -0.54318       -4.30981
H         -0.16822        0.93381       -2.85477
H         -0.81628        0.86349       -4.54647
H         -1.83889        0.37670       -3.14001
C         -2.02912        0.94740        0.25665
C         -2.70013       -0.25522        0.19715
C         -1.74101       -1.23980        0.05805
C         -0.52120       -0.59203        0.05657
N         -0.70397        0.72876        0.16492
C          0.83782       -1.22729       -0.05394
N          1.95514       -0.25402        0.13271
C          2.46083       -0.23159        1.54889
H         -3.77277       -0.39746        0.24378
H         -2.48898        1.92007        0.36045
H         -1.91433       -2.30409       -0.01235
H          0.91753       -1.67190       -1.04882
H          0.88434       -2.06739        0.66451
C          3.17780       -1.55219        1.92689
C          3.43870        0.92826        1.66771
C          1.32970        0.00609        2.59071
H          3.93535       -1.83012        1.17200
H          3.67339       -1.44588        2.91772
H          2.46701       -2.39961        2.04604
H          2.93474        1.88864        1.44707
H          3.87481        0.99224        2.68814
H          4.24846        0.78414        0.96124
H          0.75964        0.91741        2.35683
H          0.60377       -0.83233        2.64370
H          1.75837        0.13143        3.61148
Na         3.68622        4.07020        0.69601
Mg         2.89186        5.87484       -4.18728
H          5.06112        1.99475       -1.01539
C          6.60783        1.20746       -2.28378
C          5.46464        0.98578       -1.22897
C          7.49589        2.41913       -1.94720
H          7.23948        0.30613       -2.38466
H          6.19430        1.42408       -3.28485
H          6.87378        3.33517       -1.91634
H          8.00163        2.28775       -0.96973
C          8.58105        2.64458       -3.02780
H          5.97952        0.68803       -0.29226
H          9.29691        1.79610       -3.04871
H          8.11903        2.75488       -4.03360
H          9.14616        3.57607       -2.80583
C          3.75706        3.11416       -3.96993
C          3.66854        2.00707       -3.19177
C          2.88162        2.31424       -2.10918
C          2.51485        3.61927       -2.27179
N          3.04545        4.10691       -3.41597
C          1.64785        4.41521       -1.35722
N          1.65683        3.89327        0.02582
C          0.83661        4.68699        0.98128
H          4.13301        1.05946       -3.39370
H          4.31566        3.17806       -4.89229
H          2.62293        1.64157       -1.31280
H          0.63304        4.41175       -1.79782
H          2.06934        5.43583       -1.37667
C         -0.65311        4.65876        0.58790
C          0.96572        4.05690        2.37979
C          1.32597        6.14953        1.08666
H         -0.99617        3.61004        0.51026
H         -1.27216        5.17758        1.35072
H         -0.83811        5.16642       -0.37980
H          2.02551        4.02893        2.71420
H          0.37957        4.62951        3.13108
H          0.56743        3.03031        2.37520
H          2.38918        6.17847        1.40470
H          1.21603        6.69732        0.13156
H          0.71975        6.70423        1.83793
