110
speciation2300.ct
Na         0.14812        0.15170       -0.65933
Mg         6.30409       -1.56089       -7.08654
C         -1.63598        2.48076       -0.28961
C         -1.95848        1.40089       -2.37539
O         -1.08132        1.65648       -1.29911
C         -2.94352        1.96797        0.32987
C         -1.31494        0.36726       -3.27126
H         -0.88836        2.52850        0.52507
H         -1.74459        3.52248       -0.65786
H         -2.93913        0.98200       -2.07085
H         -2.08338        2.33500       -2.96548
H         -1.24380       -0.61392       -2.75695
H         -1.88628        0.25317       -4.21692
H         -0.30090        0.71546       -3.48379
H         -2.83521        0.91198        0.65511
H         -3.19884        2.59237        1.21160
H         -3.78878        2.05886       -0.38331
H          5.12984       -3.42794       -8.65649
C          3.28844       -2.83543       -7.66993
C          4.81380       -3.01884       -7.67444
C          2.80423       -1.88810       -8.77149
H          2.82078       -3.83106       -7.84098
H          2.96464       -2.46660       -6.67297
H          3.25677       -0.88360       -8.63709
H          3.11819       -2.27702       -9.76418
C          1.27252       -1.77882       -8.75817
H          5.03400       -3.79868       -6.91626
H          0.80902       -2.76705       -8.95157
H          0.91414       -1.40083       -7.77647
H          0.94423       -1.06919       -9.54733
C         -1.30015       -2.46748        0.31216
C         -0.89069       -3.62582        0.94321
C          0.47373       -3.51771        1.12493
C          0.83994       -2.30004        0.58661
N         -0.23543       -1.66443        0.11073
C          2.22074       -1.69741        0.54105
N          2.23079       -0.37180       -0.13639
C          2.59603        0.77190        0.74129
H         -1.52723       -4.45598        1.23291
H         -2.30931       -2.21926        0.01475
H          1.11997       -4.24646        1.60299
H          2.88215       -2.39306       -0.00408
H          2.58013       -1.66069        1.59849
C          4.00653        0.62370        1.37832
C          2.59915        2.02182       -0.11699
C          1.55073        0.96044        1.88408
H          4.77112        0.48379        0.58581
H          4.26468        1.53924        1.95509
H          4.08137       -0.22074        2.09070
H          1.61685        2.16327       -0.61571
H          2.83524        2.93272        0.47198
H          3.38232        1.89323       -0.88437
H          0.53263        1.05726        1.46393
H          1.54205        0.10862        2.59356
H          1.77123        1.88084        2.46790
Na         3.47064       -0.38595       -2.06266
Mg         5.31783        0.28407       -4.26421
C          2.15984        0.52600       -4.69041
C          2.98355        2.50511       -3.64538
O          2.72221        1.10226       -3.51473
C          2.98679        0.68844       -5.96025
C          1.71326        3.37287       -3.76883
H          2.02809       -0.55781       -4.49412
H          1.15606        0.92398       -4.90972
H          3.53456        2.86864       -2.76216
H          3.67896        2.70978       -4.48111
H          1.08920        3.30620       -2.85368
H          2.00518        4.43660       -3.91489
H          1.09320        3.09845       -4.64677
H          4.00242        0.27668       -5.83603
H          2.46947        0.14663       -6.77451
H          3.03292        1.74780       -6.28931
H          6.80109       -1.40789       -9.79941
C          8.44889       -0.13927       -9.23739
C          7.00935       -0.66150       -9.00950
C          9.57835       -1.19010       -9.11946
H          8.52499        0.34333      -10.23761
H          8.67007        0.66956       -8.50928
H         10.52371       -0.61052       -9.19314
H          9.58958       -1.67093       -8.13399
C          9.69130       -2.26275      -10.21646
H          6.31888        0.19986       -9.16719
H          9.29253       -3.27938       -9.98786
H          9.48949       -1.85837      -11.23651
H         10.74610       -2.54956      -10.21417
C          5.66463       -2.36706       -0.91122
C          6.67715       -3.29878       -1.05744
C          6.85895       -3.44378       -2.41541
C          5.97971       -2.55817       -3.01932
N          5.23650       -1.89624       -2.08852
C          5.89085       -2.44108       -4.51700
N          6.35767       -1.15725       -5.06694
C          7.79199       -0.79901       -4.91752
H          7.19287       -3.83885       -0.27812
H          5.28889       -2.04180        0.05415
H          7.56453       -4.11611       -2.89286
H          6.44734       -3.27110       -4.99924
H          4.83077       -2.59149       -4.79261
C          8.67775       -1.88737       -5.54556
C          7.96254        0.52749       -5.66264
C          8.24779       -0.53815       -3.46519
H          8.28979       -2.15058       -6.54707
H          9.73540       -1.55276       -5.61729
H          8.66854       -2.81644       -4.93832
H          7.37866        1.33049       -5.16662
H          9.02597        0.84057       -5.69748
H          7.56971        0.43994       -6.68464
H          7.59019        0.20464       -2.96872
H          8.29368       -1.45186       -2.85942
H          9.28817       -0.14565       -3.46153
