110
speciation2130.ct
Na         7.52901       -3.11186        1.56564
Mg        -0.24971        0.78638        6.16957
C         10.22403       -1.55291        1.51085
C          8.74999       -0.72944       -0.16260
O          9.19541       -1.83481        0.57838
C          9.88132       -0.50006        2.56941
C          7.70278       -1.23640       -1.14510
H         10.41004       -2.50432        2.05485
H         11.17470       -1.31056        0.98961
H          8.28721        0.03752        0.49288
H          9.58658       -0.29515       -0.75524
H          6.89168       -1.75760       -0.60885
H          7.26804       -0.39451       -1.72006
H          8.15292       -1.97660       -1.83786
H          8.91942       -0.74252        3.06767
H         10.68421       -0.48946        3.33881
H          9.83338        0.51355        2.12202
H         -2.55110       -0.66060        6.71933
C         -3.18907        1.09926        7.77541
C         -2.08047        0.15029        7.30453
C         -4.02476        1.70883        6.64569
H         -3.88520        0.53177        8.43638
H         -2.73891        1.91156        8.38192
H         -4.78253        2.37809        7.10690
H         -3.39072        2.32200        5.98847
C         -4.76167        0.65911        5.81068
H         -1.74328       -0.31597        8.24276
H         -4.05142        0.00485        5.26529
H         -5.41191        0.03558        6.46127
H         -5.39332        1.16699        5.05394
C          3.43376       -0.63570        3.17586
C          4.43999       -0.24933        2.33960
C          5.01336       -1.41140        1.86114
C          4.30995       -2.46394        2.41671
N          3.36192       -1.96971        3.23189
C          4.50893       -3.93281        2.12079
N          5.82670       -4.41644        2.57417
C          6.11217       -5.84591        2.29667
H          4.71480        0.76885        2.10388
H          2.76063        0.01790        3.71703
H          5.82315       -1.46195        1.17341
H          4.39466       -4.06233        1.02671
H          3.70295       -4.49000        2.63714
C          6.17427       -6.14100        0.78163
C          7.49501       -6.15049        2.89758
C          5.06012       -6.77154        2.94870
H          6.92535       -5.49277        0.28288
H          6.45852       -7.20300        0.61006
H          5.19093       -5.99132        0.29174
H          7.50737       -5.94091        3.98803
H          7.77277       -7.21565        2.74079
H          8.27125       -5.51736        2.41427
H          4.93919       -6.53664        4.02695
H          4.07322       -6.67119        2.44882
H          5.35970       -7.83705        2.84719
Na         5.87258       -4.12711        4.69141
Mg         1.97581       -2.47883        4.36971
C          1.44019        3.15396        6.76429
C          1.13123        2.05392        8.77906
O          0.68756        2.15161        7.42065
C          2.64188        2.56383        6.03574
C          0.22174        1.17761        9.61000
H          0.74405        3.70365        6.12527
H          1.78817        3.97613        7.43278
H          2.17302        1.66513        8.82380
H          1.09291        3.05231        9.27298
H          0.19994        0.14368        9.22680
H          0.60715        1.14062       10.64964
H         -0.80048        1.60262        9.62170
H          2.31774        1.75411        5.35299
H          3.15441        3.35403        5.44824
H          3.36453        2.15657        6.77454
H         -1.84300        1.76950        3.99310
C         -0.06669        2.95014        3.59544
C         -1.03330        2.25098        4.57979
C         -0.71158        4.05108        2.72569
H          0.75274        3.44700        4.12670
H          0.38834        2.17980        2.94775
H         -1.48536        3.61056        2.06270
H         -1.19269        4.83746        3.35373
C          0.37160        4.72958        1.87639
H         -1.49268        3.05570        5.19982
H          1.10845        5.24342        2.53421
H          0.91005        3.97240        1.26851
H         -0.06959        5.48799        1.19606
C          0.89946       -4.73331        3.43834
C          0.32665       -4.42308        2.22116
C         -0.36637       -3.23283        2.40229
C         -0.22139       -2.93788        3.75576
N          0.64003       -3.70761        4.25760
C         -0.48062       -1.67527        4.58206
N          0.75656       -1.16406        5.32657
C          1.38173       -1.82847        6.54709
H          0.50438       -5.00055        1.29886
H          1.52645       -5.56799        3.66730
H         -0.81230       -2.65633        1.61545
H         -1.28341       -1.90593        5.30576
H         -0.85997       -0.88679        3.90600
C          2.51693       -2.89960        6.33134
C          2.14951       -0.72766        7.24402
C          0.35553       -2.46715        7.48152
H          3.35753       -2.49714        5.72261
H          2.98027       -3.18308        7.29933
H          2.19313       -3.86919        5.92385
H          1.43418        0.03667        7.43896
H          2.62562       -1.05745        8.19256
H          2.93734       -0.30688        6.57722
H         -0.36075       -1.73418        7.82328
H         -0.18101       -3.29721        6.97835
H          0.85962       -2.87325        8.38636
