95
speciation1641.ct
Na         6.01784       -0.73540       -1.03039
Mg         2.44756        4.74152       -1.25215
C          4.53707        6.26619       -2.79173
C          5.12273        5.85438       -0.54357
O          4.05970        5.95755       -1.48065
C          5.56890        5.29589       -3.37964
C          5.92496        7.15415       -0.36068
H          3.67171        6.29019       -3.45810
H          4.92531        7.30581       -2.83850
H          4.68329        5.56802        0.42479
H          5.82967        5.04989       -0.80521
H          5.26133        8.01495       -0.15691
H          6.63955        7.02635        0.48041
H          6.52159        7.39363       -1.26373
H          5.15342        4.28945       -3.38419
H          5.79842        5.56456       -4.42975
H          6.52977        5.30802       -2.82473
H          0.26238        4.55245       -2.93750
C          1.44808        5.06435       -4.67328
C          1.17333        5.15283       -3.14806
C          0.24692        5.56520       -5.51751
H          2.30339        5.71292       -4.93933
H          1.69343        4.02200       -4.95752
H         -0.63735        4.91583       -5.34351
H         -0.02313        6.60676       -5.22846
C          0.56643        5.57470       -7.01782
H          0.96391        6.21788       -3.01496
H          1.40939        6.26707       -7.23282
H          0.83494        4.55618       -7.36736
H         -0.31720        5.92348       -7.59697
C          4.40051       -1.43066       -3.42323
C          3.55304       -1.09703       -4.45046
C          3.23181        0.23415       -4.27118
C          3.87944        0.66588       -3.12324
N          4.62271       -0.36384       -2.63055
C          3.85695        2.11968       -2.61591
N          3.05290        2.48122       -1.41023
C          3.55097        1.92206       -0.11533
H          3.23561       -1.75531       -5.25126
H          4.85890       -2.40255       -3.27120
H          2.60667        0.82426       -4.91939
H          4.90832        2.42490       -2.50346
H          3.42152        2.71394       -3.44537
C          5.02292        2.28542        0.19299
C          2.68713        2.57435        0.89183
C          3.34278        0.40413        0.08801
H          5.14398        3.36823        0.21321
H          5.31429        1.93233        1.20480
H          5.73980        1.85111       -0.53082
H          1.61490        2.30518        0.75244
H          2.99979        2.33806        1.93196
H          2.84165        3.63337        0.64059
H          2.31038        0.08960       -0.15869
H          4.04335       -0.21172       -0.45363
H          3.54596        0.13642        1.15067
Na         1.11971        1.59055       -1.66841
Mg        -0.25660        4.05223        0.58847
H         -2.35962        2.68013       -0.36184
C         -2.76028        2.65153        1.74242
C         -1.77731        2.54879        0.57779
C         -2.06209        2.47957        3.09165
H         -3.24484        3.65038        1.69998
H         -3.54962        1.87269        1.63354
H         -1.60388        1.46798        3.15092
H         -1.26363        3.24527        3.19405
C         -3.05627        2.64420        4.24110
H         -1.31875        1.53454        0.54819
H         -3.51782        3.65469        4.20870
H         -3.85905        1.87831        4.17632
H         -2.53068        2.52654        5.21182
C          4.27578        8.06068        2.34103
C          4.17708        7.60421        3.63247
C          3.28004        6.54929        3.62948
C          2.83664        6.37337        2.38276
N          3.45370        7.29070        1.50778
C          1.74492        5.38398        2.01604
N          1.13362        5.50487        0.63376
C          0.18952        6.73350        0.63669
H          4.69117        8.02555        4.48391
H          4.88067        8.89298        2.00757
H          2.94873        5.99991        4.50062
H          0.98545        5.42697        2.79557
H          2.09106        4.39652        2.29835
C          0.90430        8.09147        0.85468
C         -0.56797        6.89318       -0.68684
C         -0.95268        6.63753        1.71414
H          1.70486        8.23776        0.09789
H          0.20326        8.94517        0.74435
H          1.26944        8.21265        1.89160
H         -1.17144        5.99796       -0.93880
H         -1.27393        7.75712       -0.61953
H          0.11995        7.17927       -1.48054
H         -1.65789        5.81196        1.48584
H         -0.64852        6.54890        2.77088
H         -1.53788        7.58394        1.73159
