110
speciation2496.ct
Na        -4.26612       -3.67758       -0.17041
Mg        -0.25531       -3.28438        3.84617
C          0.53627       -1.00811        5.77936
C          2.22683       -1.34490        4.12949
O          0.98967       -1.82156        4.69699
C          0.22151        0.46236        5.44109
C          3.43197       -1.20917        5.05804
H         -0.39233       -1.44579        6.17752
H          1.26063       -1.06003        6.61909
H          2.53089       -2.05706        3.33501
H          2.09574       -0.34696        3.65206
H          3.69860       -2.16891        5.52508
H          4.29716       -0.87351        4.44247
H          3.26685       -0.43491        5.83280
H         -0.61438        0.53743        4.71639
H         -0.08041        0.98694        6.37553
H          1.10158        1.01419        5.05292
H         -2.60213       -2.60585        5.06132
C         -2.01078       -3.87796        6.69922
C         -2.05016       -3.56157        5.18197
C         -3.40531       -3.96783        7.37824
H         -1.46282       -4.82458        6.87839
H         -1.46651       -3.06727        7.22236
H         -3.25229       -4.12812        8.47023
H         -3.96511       -3.01363        7.25816
C         -4.26911       -5.12183        6.86784
H         -2.60395       -4.37009        4.66338
H         -4.53512       -4.97502        5.80213
H         -3.73374       -6.08739        6.98891
H         -5.21368       -5.16805        7.45254
C         -3.70096       -0.66912       -1.00473
C         -3.08934        0.52773       -0.68550
C         -2.42236        0.31886        0.49625
C         -2.63234       -1.00696        0.84125
N         -3.43291       -1.61324       -0.07322
C         -2.03439       -1.65101        2.07383
N         -1.04887       -2.73668        1.82290
C          0.06546       -2.40515        0.86689
H         -3.12570        1.45461       -1.24837
H         -4.31233       -0.83100       -1.88241
H         -1.83281        1.05347        1.03310
H         -1.54703       -0.86750        2.69179
H         -2.86917       -2.05408        2.67801
C          0.75829       -1.13069        1.31471
C          1.05874       -3.57242        0.89349
C         -0.32559       -2.21802       -0.62624
H          0.72303       -1.19700        2.37728
H          1.78544       -1.01457        0.90916
H          0.17711       -0.21623        1.10401
H          0.58412       -4.47968        0.46217
H          1.95719       -3.35803        0.27772
H          1.40709       -3.75586        1.92212
H         -0.97295       -3.03869       -0.99205
H         -0.80376       -1.24612       -0.83574
H          0.59096       -2.18779       -1.25873
Na        -2.19124       -4.27707        0.86724
Mg        -5.97538       -8.36299       -3.62966
C          0.21801       -6.04253        2.85450
C          1.48481       -5.73349        4.78833
O          0.72220       -5.07808        3.77789
C         -0.71860       -7.10573        3.43987
C          2.00828       -4.76494        5.81889
H         -0.38551       -5.50233        2.10969
H          1.05646       -6.52602        2.29682
H          0.89665       -6.48238        5.35940
H          2.37759       -6.22022        4.32610
H          1.16409       -4.30118        6.36790
H          2.65544       -5.31193        6.54096
H          2.61243       -4.00411        5.30670
H         -1.52783       -6.61542        4.01494
H         -1.16311       -7.69333        2.60814
H         -0.17763       -7.83305        4.08039
H         -6.06512      -10.93670       -3.31017
C         -7.54997      -10.63932       -4.87386
C         -6.85192      -10.20467       -3.59106
C         -6.57582      -10.71643       -6.05137
H         -8.00579      -11.64006       -4.70545
H         -8.35762       -9.91195       -5.10432
H         -6.12530       -9.71853       -6.22823
H         -5.76161      -11.43905       -5.82488
C         -7.29887      -11.16757       -7.31865
H         -7.59851      -10.16616       -2.76988
H         -7.73034      -12.18160       -7.17507
H         -8.11642      -10.45830       -7.56997
H         -6.58465      -11.20235       -8.16772
C         -5.89774       -6.28665        0.75744
C         -6.24560       -7.57298        0.38698
C         -5.71784       -7.78965       -0.85031
C         -5.05216       -6.61971       -1.19774
N         -5.16421       -5.70045       -0.21843
C         -4.28456       -6.41443       -2.45242
N         -5.12033       -6.56645       -3.66732
C         -4.34727       -6.31228       -4.91771
H         -6.81578       -8.28107        0.97286
H         -6.14581       -5.80802        1.69157
H         -5.76595       -8.70117       -1.43608
H         -3.85671       -5.39549       -2.37940
H         -3.47412       -7.16518       -2.44053
C         -3.21437       -7.34820       -5.10816
C         -5.31861       -6.41911       -6.10108
C         -3.73251       -4.88503       -4.95153
H         -3.61692       -8.38211       -5.07180
H         -2.70521       -7.19609       -6.08463
H         -2.42560       -7.24294       -4.33500
H         -6.11077       -5.64411       -6.02132
H         -4.78017       -6.26558       -7.06321
H         -5.80020       -7.41545       -6.12246
H         -4.51862       -4.11397       -4.80362
H         -2.94367       -4.74066       -4.18574
H         -3.23558       -4.69600       -5.92786
