80
speciation944.ct
Na         3.24645       -0.15965        3.29524
Mg         2.09019        4.36962       -0.70066
H          4.26859        4.45583       -2.50158
C          3.75630        6.46909       -2.02811
C          3.33993        5.05998       -2.38589
C          4.49277        6.42928       -0.69062
H          4.41269        6.90362       -2.81797
H          2.83365        7.07993       -1.94865
H          3.86217        5.90463        0.05883
H          5.44672        5.86637       -0.80440
C          4.78369        7.83044       -0.17854
H          2.83630        5.06456       -3.37669
H          5.43317        8.37911       -0.89198
H          3.83086        8.38564       -0.04293
H          5.29650        7.75816        0.80287
C          4.66926       -1.08805        1.03412
C          5.26785       -0.99979       -0.19450
C          4.96777        0.25097       -0.69433
C          4.16187        0.87423        0.24192
N          4.02203        0.04762        1.32335
C          3.58382        2.28142        0.12319
N          2.90951        2.67480       -1.15149
C          1.78901        1.85800       -1.70286
H          5.86338       -1.77125       -0.65856
H          4.71024       -1.93117        1.71182
H          5.28948        0.64738       -1.64060
H          2.91361        2.47130        0.96966
H          4.44271        2.97577        0.23354
C          0.63796        1.89769       -0.76205
C          1.33591        2.49010       -3.03196
C          2.13009        0.37526       -1.96960
H          0.38406        2.95706       -0.61397
H         -0.25441        1.35850       -1.14376
H          0.99036        1.40448        0.15710
H          2.14707        2.44127       -3.78752
H          0.44677        1.95737       -3.43839
H          1.04400        3.55134       -2.88381
H          2.99957        0.27585       -2.64734
H          2.30319       -0.18695       -1.03088
H          1.26064       -0.13419       -2.44172
Na        -1.22441        0.42878        1.01537
Mg         4.19042        2.40326       -2.65003
H          5.65097        1.03262       -4.32573
C          6.84834        2.80500       -3.96316
C          5.50352        2.12490       -4.18623
C          7.56232        2.21407       -2.74329
H          7.47763        2.64793       -4.86677
H          6.68629        3.89470       -3.82067
H          6.94393        2.36589       -1.83273
H          7.71595        1.12271       -2.89697
C          8.92244        2.87071       -2.52981
H          5.01433        2.53223       -5.09581
H          9.56298        2.73387       -3.42740
H          8.79755        3.95607       -2.33095
H          9.42888        2.40333       -1.65895
C          0.89877        6.37913        0.94739
C         -0.04847        6.84890        1.84398
C         -0.90539        5.80125        2.08886
C         -0.45379        4.73290        1.34682
N          0.66425        5.09496        0.63079
C         -1.19834        3.41452        1.37834
N         -0.38017        2.26235        1.76247
C          0.15185        2.06111        3.11935
H         -0.11529        7.83586        2.26149
H          1.70648        6.96173        0.55420
H         -1.76700        5.80833        2.73852
H         -2.09564        3.46268        2.02748
H         -1.58822        3.22684        0.35502
C         -0.95998        2.00805        4.17104
C          0.83941        0.69531        3.09195
C          1.19446        3.13434        3.48818
H         -1.67972        1.19637        3.92843
H         -0.51685        1.79443        5.16940
H         -1.49688        2.97375        4.22667
H          1.60331        0.69689        2.28903
H          1.29562        0.46707        4.07806
H          0.12585       -0.12161        2.85253
H          2.00629        3.17820        2.74300
H          0.74136        4.13781        3.56181
H          1.66107        2.90363        4.46880
