96
speciation1004.ct
Na        -0.77489       -5.14600       -1.66008
Mg         0.66119        0.51748        1.35745
C         -0.25815       -8.43568       -1.52969
C         -0.76617       -7.24213        0.46195
O         -0.82693       -7.25175       -0.95216
C         -1.03110       -9.72078       -1.16221
C          0.66059       -7.15556        1.01104
H         -0.32190       -8.34249       -2.63251
H          0.81975       -8.56266       -1.28489
H         -1.30700       -6.32178        0.77201
H         -1.35365       -8.06355        0.92027
H          1.22521       -6.37681        0.46043
H          0.63930       -6.89357        2.08945
H          1.18307       -8.13031        0.92172
H         -2.10891       -9.60452       -1.39545
H         -0.63764      -10.59250       -1.73508
H         -0.91646       -9.97974       -0.08549
H          2.58600       -0.48427       -0.41307
C          2.60928        0.92205       -1.98923
C          1.83572        0.23504       -0.80746
C          1.76594        1.85772       -2.87467
H          3.50487        1.47261       -1.63093
H          2.98978        0.12867       -2.68346
H          2.38339        2.23031       -3.72967
H          0.89966        1.30472       -3.30235
C          1.28313        3.05247       -2.07542
H          1.07106       -0.35168       -1.34845
H          0.68143        2.69088       -1.22410
H          2.15386        3.62964       -1.69833
H          0.66322        3.71356       -2.71730
C          0.56962       -1.70383        3.58627
C          0.34803       -3.02712        3.89096
C          0.24152       -3.66738        2.66843
C          0.40483       -2.71175        1.69494
N          0.59076       -1.47476        2.23861
C          0.27414       -3.02657        0.24517
N         -1.09664       -3.49938       -0.06132
C         -2.16654       -2.44085        0.09017
H          0.24583       -3.48193        4.85283
H          0.65277       -0.96033        4.36900
H          0.03217       -4.71604        2.52421
H          0.99768       -3.84279        0.02653
H          0.56096       -2.19422       -0.38342
C         -1.81189       -1.13381       -0.66056
C         -3.47111       -3.01063       -0.46467
C         -2.47994       -2.07073        1.57625
H         -0.94810       -0.62625       -0.19044
H         -2.64974       -0.40479       -0.61062
H         -1.57648       -1.34306       -1.72716
H         -3.76848       -3.91658        0.10672
H         -4.29195       -2.26233       -0.36053
H         -3.37447       -3.26710       -1.53930
H         -2.65699       -2.97878        2.18855
H         -1.71767       -1.45135        2.04898
H         -3.37892       -1.42060        1.63951
Mg         0.40226        3.83824        1.81852
C          1.06199       -4.41708       -3.93416
C         -1.12661       -4.30516       -4.76544
O         -0.28603       -4.81992       -3.74058
C          1.27900       -2.90486       -3.78724
C         -2.51819       -4.90291       -4.67604
H          1.66956       -4.93024       -3.16431
H          1.45679       -4.77797       -4.91486
H         -1.22964       -3.20199       -4.69651
H         -0.72874       -4.58688       -5.76919
H         -2.98327       -4.62376       -3.70990
H         -3.14221       -4.50137       -5.50464
H         -2.47007       -6.00766       -4.76950
H          0.85656       -2.55345       -2.82562
H          2.36550       -2.67854       -3.81134
H          0.81004       -2.34336       -4.62312
C         -3.31683        3.51659       -1.52110
C         -2.16891        4.27600       -1.48576
C         -1.49244        3.95971       -0.31434
C         -2.18903        3.01660        0.32390
N         -3.35744        2.68037       -0.39722
C         -1.97716        2.52977        1.72781
N         -0.59308        2.20379        2.18830
C         -0.57644        2.19615        3.70720
H         -1.88544        5.01735       -2.22095
H         -4.08448        3.56270       -2.28197
H         -0.59781        4.44602        0.04194
H         -2.69054        1.70778        1.93095
H         -2.34263        3.41733        2.26802
C         -1.54696        1.14124        4.30883
C          0.85533        1.90078        4.16531
C         -0.95133        3.57098        4.35788
H         -1.34404        0.12761        3.93098
H         -1.47592        1.13076        5.42040
H         -2.61041        1.38332        4.09226
H          1.53945        2.71301        3.84893
H          0.89984        1.81853        5.27715
H          1.22463        0.97061        3.71501
H         -0.31331        4.39377        3.97611
H         -2.01708        3.86161        4.24652
H         -0.81486        3.52693        5.46400
