110
speciation1990.ct
Na         0.78558       -0.13857       -0.02815
Mg        -1.14646        5.60282       -0.06488
C          0.51688       -3.22902        0.23928
C         -1.60680       -2.53056        1.00071
O         -0.24427       -2.12071        0.72159
C         -0.09216       -4.05495       -0.90340
C         -1.71559       -3.46923        2.22439
H          1.44146       -2.81574       -0.19335
H          0.80290       -3.89384        1.08807
H         -2.28028       -1.70744        1.23653
H         -2.11700       -2.96088        0.12126
H         -1.29598       -2.98774        3.13426
H         -2.78721       -3.70103        2.42451
H         -1.20356       -4.43958        2.05889
H         -0.32974       -3.39062       -1.75441
H          0.64468       -4.81411       -1.23495
H         -0.99376       -4.62158       -0.58972
H         -2.57346        6.91026       -1.84665
C         -3.85529        5.30512       -1.12092
C         -2.50035        5.83620       -1.57289
C         -4.35466        6.06467        0.11112
H         -4.58549        5.41232       -1.95222
H         -3.75169        4.22798       -0.87623
H         -3.61597        5.96884        0.93713
H         -4.47340        7.14136       -0.14023
C         -5.69822        5.51740        0.58656
H         -2.14784        5.26212       -2.45558
H         -6.45864        5.60381       -0.21874
H         -5.59762        4.45055        0.88068
H         -6.04662        6.09724        1.46718
C          0.33031        6.21741        2.44303
C          1.15899        5.65494        3.39226
C          1.51876        4.40801        2.92221
C          0.89662        4.25548        1.69790
N          0.17426        5.37515        1.40617
C          0.96240        2.99734        0.83467
N          0.29256        1.79915        1.41817
C         -1.19152        1.97054        1.58630
H          1.43804        6.09272        4.34126
H         -0.17275        7.17142        2.52796
H          2.14010        3.68381        3.43059
H          2.03285        2.76592        0.68286
H          0.56034        3.20678       -0.17376
C         -1.88704        2.19184        0.22536
C         -1.67900        0.68431        2.19542
C         -1.66033        3.07285        2.57597
H         -1.61688        1.38254       -0.47489
H         -2.99179        2.21847        0.34491
H         -1.59681        3.15898       -0.23188
H         -1.25725        0.52393        3.21092
H         -2.79198        0.64223        2.24870
H         -1.26391       -0.06227        1.53629
H         -1.14753        2.98596        3.55804
H         -1.57195        4.08888        2.18507
H         -2.75590        2.99202        2.75271
Na         4.08297       -1.43821       -2.91688
Mg         0.99818        1.55107        3.26225
C          1.33028        0.40820       -3.11288
C         -0.92689       -0.06119       -3.14472
O          0.24074       -0.02851       -2.30487
C          1.21456        1.87251       -3.58567
C         -2.12292       -0.78827       -2.55593
H          2.23762        0.27141       -2.53323
H          1.51114       -0.26956       -3.98103
H         -1.26513        0.96843       -3.38566
H         -0.70918       -0.60665       -4.09928
H         -2.45399       -0.29957       -1.62726
H         -2.95174       -0.72591       -3.29674
H         -1.89344       -1.85263       -2.38367
H          0.97307        2.53592       -2.73354
H          2.16549        2.19918       -4.05458
H          0.42950        1.97783       -4.36265
H          2.82503        1.18991        5.11237
C          1.07100        0.03415        5.73688
C          1.72154        1.29675        5.15267
C          1.58352       -0.39017        7.13177
H         -0.03234        0.16733        5.76954
H          1.29594       -0.79578        5.03535
H          1.13862       -1.38191        7.36954
H          2.68731       -0.50927        7.10364
C          1.19878        0.54790        8.27891
H          1.46139        2.18126        5.77031
H          1.62754        1.56033        8.14118
H          0.09381        0.61799        8.37431
H          1.59322        0.13111        9.23328
C          6.95096       -0.39744       -2.09654
C          7.56563        0.49262       -1.23722
C          6.57891        1.10915       -0.51838
C          5.37390        0.55302       -0.96913
N          5.61837       -0.34893       -1.92004
C          3.98774        0.89299       -0.45875
N          3.23351       -0.28110        0.09800
C          3.78582       -0.76941        1.41170
H          8.63886        0.65721       -1.15230
H          7.45663       -1.04726       -2.80421
H          6.70500        1.85718        0.24387
H          3.45471        1.33153       -1.31024
H          4.03094        1.72498        0.26638
C          3.88308        0.35963        2.45961
C          2.84392       -1.83361        1.96971
C          5.16843       -1.46879        1.27493
H          2.89801        0.85060        2.57520
H          4.20520       -0.05002        3.44052
H          4.64336        1.12111        2.19394
H          2.89246       -2.73827        1.33644
H          3.16324       -2.15885        2.98296
H          1.81306       -1.43552        2.04106
H          5.13228       -2.27284        0.50675
H          5.99577       -0.78752        1.03776
H          5.46836       -1.93122        2.23971
