81
speciation428.ct
Na         1.50798        2.05320        0.47166
Mg         6.05951       -1.37264       -0.88527
C          2.72038        4.55487        1.54611
C          1.18819        4.57913       -0.30767
O          2.21028        3.90289        0.37950
C          1.74739        5.00874        2.65953
C          1.70736        5.83268       -0.99789
H          3.42397        3.85259        2.01664
H          3.36720        5.40386        1.24946
H          0.78520        3.88280       -1.08819
H          0.34480        4.80782        0.36533
H          2.45688        5.59772       -1.78623
H          0.85673        6.37543       -1.45092
H          2.16491        6.49663       -0.24397
H          0.94879        4.28458        2.91901
H          2.35518        5.14685        3.58650
H          1.28518        5.99045        2.42361
H          7.63467       -2.47791        0.74392
C          8.07171       -0.53902        1.52289
C          7.70583       -1.44574        0.35726
C          9.40193       -1.01070        2.11928
H          8.20513        0.50518        1.15791
H          7.28547       -0.55250        2.31128
H          9.32883       -2.05136        2.51588
H         10.19969       -0.98266        1.34266
C          9.78768       -0.09528        3.25102
H          8.51471       -1.38922       -0.39803
H          9.75703        0.96152        2.90586
H          9.06247       -0.25406        4.07679
H         10.81512       -0.34808        3.57529
C         -1.64729        1.49321        0.29672
C         -2.39939        0.33497        0.34101
C         -1.50903       -0.70938        0.49344
C         -0.24883       -0.13769        0.52038
N         -0.34278        1.19154        0.43106
C          1.07645       -0.84786        0.50677
N          2.20856        0.07453        0.58698
C          3.23779       -0.11681        1.62441
H         -3.47488        0.25454        0.24606
H         -2.03116        2.49388        0.14967
H         -1.76846       -1.75842        0.54528
H          1.12489       -1.20528       -0.53145
H          1.14996       -1.69714        1.21226
C          3.94752       -1.45403        1.53840
C          4.26182        0.95961        1.30551
C          2.66598        0.04034        3.02270
H          4.40542       -1.39272        0.54752
H          4.80853       -1.61129        2.20924
H          3.25681       -2.31840        1.72201
H          3.71930        1.90257        1.34774
H          5.12543        0.93612        1.99602
H          4.63311        0.85974        0.25475
H          2.09945        0.98636        3.06452
H          1.99010       -0.81019        3.26537
H          3.50014        0.05399        3.75847
Mg         3.21718       -0.02870       -1.10241
C          2.86239        2.18270       -3.20084
C          3.38081        2.36640       -4.46826
C          4.21838        1.29607       -4.71701
C          4.16420        0.51151       -3.58197
N          3.33689        1.03979       -2.67821
C          4.88727       -0.76560       -3.31213
N          4.46720       -1.31610       -2.00295
C          3.91489       -2.70963       -2.07460
H          3.16219        3.18754       -5.13710
H          2.17065        2.84014       -2.70480
H          4.79025        1.11489       -5.61976
H          5.98561       -0.59936       -3.29285
H          4.66483       -1.44632       -4.14586
C          4.97123       -3.69452       -2.58456
C          3.54310       -3.21864       -0.69606
C          2.62048       -2.74332       -2.89959
H          5.87704       -3.65017       -1.93429
H          4.56568       -4.73085       -2.53462
H          5.27489       -3.49116       -3.62538
H          2.79087       -2.52196       -0.33857
H          3.04953       -4.20241       -0.64368
H          4.45556       -3.33944       -0.06776
H          1.89261       -2.01169       -2.49157
H          2.78635       -2.50634       -3.96369
H          2.16237       -3.75582       -2.84027
