110
speciation2660.ct
Na         5.08112        1.48951       -3.94544
Mg         5.80369       -1.79607       -3.58020
C          8.51393       -1.33174       -3.62883
C          7.94228       -2.65064       -5.51865
O          7.63793       -2.32061       -4.15583
C          8.52462        0.00335       -4.39309
C          9.32136       -3.31895       -5.71637
H          8.18342       -1.14128       -2.59500
H          9.53915       -1.72399       -3.48924
H          7.18022       -3.35706       -5.91019
H          7.88938       -1.77330       -6.17728
H          9.33037       -4.35185       -5.31126
H          9.55653       -3.36388       -6.80205
H         10.15372       -2.74933       -5.25886
H          7.50553        0.41770       -4.47612
H          9.14537        0.74155       -3.84918
H          8.95891       -0.09659       -5.40829
H          1.76840       -0.03576        1.12328
C          2.03861        2.10850        0.74005
C          2.56219        0.62792        0.72706
C          1.76866        2.80997        2.10494
H          2.78320        2.76040        0.27424
H          1.11004        2.15335        0.13276
H          1.27824        3.78979        1.89185
H          1.07637        2.22068        2.73756
C          3.04764        3.17096        2.88271
H          3.36565        0.57969        1.47891
H          3.60869        2.26757        3.18646
H          3.70814        3.82431        2.27007
H          2.78701        3.75002        3.79790
C          4.48841        4.27113       -5.36022
C          3.82246        5.37633       -4.88044
C          3.44283        5.07522       -3.59070
C          3.90298        3.80632       -3.33359
N          4.53346        3.31891       -4.41933
C          3.73158        3.03983       -2.03919
N          4.47887        1.74845       -1.98107
C          5.79635        1.87331       -1.28811
H          3.62507        6.29444       -5.41983
H          4.91152        4.15761       -6.35461
H          2.90065        5.71486       -2.90398
H          2.64368        2.84586       -1.93678
H          4.05276        3.72335       -1.22985
C          5.67880        2.09336        0.23619
C          6.39729        0.54725       -1.51920
C          6.76486        2.92464       -1.88513
H          5.10245        1.29011        0.68608
H          6.67853        2.03843        0.72193
H          5.23859        3.07501        0.49577
H          6.49188        0.32334       -2.57873
H          7.35670        0.40327       -0.97604
H          5.56886       -0.05518       -1.15542
H          6.92882        2.74050       -2.95806
H          6.42388        3.94442       -1.71208
H          7.77014        2.80529       -1.38233
Na         6.85276       -4.56569       -3.87083
Mg         3.40640       -0.09717       -1.41307
C          3.67407       -1.10855       -5.02978
C          5.47979       -0.44288       -6.35294
O          5.00715       -0.67928       -5.02347
C          3.42959       -2.42260       -5.78322
C          4.75196        0.71519       -7.07050
H          3.43771       -1.21972       -3.96752
H          2.99628       -0.32541       -5.40106
H          6.52783       -0.11669       -6.32321
H          5.46013       -1.36456       -6.96446
H          4.93809        1.66977       -6.54079
H          5.13327        0.80495       -8.10736
H          3.65781        0.57285       -7.16742
H          4.15564       -3.19404       -5.44736
H          2.39232       -2.76731       -5.59036
H          3.51558       -2.28438       -6.87744
H          0.83456        0.86498       -2.60360
C          0.22715       -1.15820       -3.06693
C          1.35077       -0.08602       -2.84526
C         -0.63373       -1.38508       -1.82489
H         -0.45179       -0.84884       -3.89656
H          0.65000       -2.11794       -3.42641
H          0.01088       -1.60003       -0.94955
H         -1.21309       -0.45514       -1.64083
C         -1.60680       -2.55740       -2.00489
H          1.70099        0.09091       -3.86320
H         -2.24165       -2.42921       -2.90815
H         -1.04621       -3.51395       -2.09373
H         -2.27040       -2.62703       -1.11650
C          8.75862       -4.49628       -1.65685
C          9.18511       -4.11786       -0.40757
C          8.19184       -3.32776        0.10945
C          7.18671       -3.23916       -0.84779
N          7.54378       -3.97302       -1.93451
C          5.94672       -2.38107       -0.56299
N          4.82753       -2.16577       -1.59509
C          3.90744       -3.37536       -1.50301
H         10.11772       -4.38530        0.07309
H          9.31751       -5.12552       -2.33696
H          8.20320       -2.85278        1.08227
H          6.43429       -1.48061       -0.21548
H          5.54693       -2.68383        0.40994
C          3.25830       -3.56070       -0.09860
C          2.74729       -3.18924       -2.43136
C          4.58374       -4.69499       -1.92759
H          2.75362       -2.62507        0.22339
H          2.49761       -4.37191       -0.13221
H          3.95517       -3.90144        0.68750
H          3.08579       -3.22381       -3.46208
H          1.98711       -3.99641       -2.34417
H          2.31152       -2.23450       -2.13915
H          4.97105       -4.59047       -2.95538
H          5.38166       -5.00626       -1.23185
H          3.85364       -5.53171       -1.94409
