66
speciation193.ct
Na         0.63924        1.01485       -0.54782
Mg         3.40150       -0.33134       -1.76061
H          1.91242        1.87197       -2.42186
C          3.14145        1.87931       -4.18746
C          2.96861        1.65212       -2.68867
C          2.27460        0.91766       -4.99287
H          2.85117        2.92875       -4.43042
H          4.21210        1.74490       -4.45258
H          2.56835       -0.12247       -4.74420
H          1.20394        1.06924       -4.72952
C          2.45228        1.14933       -6.49048
H          3.58627        2.44304       -2.22223
H          2.12838        2.17567       -6.76905
H          3.51694        1.01446       -6.77781
H          1.83531        0.41709       -7.05111
C         -1.71370       -1.08812       -0.01803
C         -1.64634       -2.39243        0.43475
C         -0.31016       -2.67124        0.64662
C          0.38033       -1.52264        0.31793
N         -0.47487       -0.57089       -0.09023
C          1.88580       -1.34668        0.40994
N          2.38041       -0.01001       -0.02491
C          2.98546        0.79624        1.06942
H         -2.47772       -3.06620        0.59467
H         -2.61432       -0.55130       -0.28014
H          0.10964       -3.60282        1.00416
H          2.34950       -2.08840       -0.23047
H          2.19062       -1.61420        1.43626
C          4.26379        0.13096        1.62840
C          3.38463        2.16500        0.50920
C          1.95687        1.03936        2.20235
H          4.99691       -0.03540        0.81128
H          4.73363        0.78617        2.39327
H          4.06679       -0.84120        2.11856
H          2.50782        2.67597        0.05426
H          3.79174        2.82066        1.30845
H          4.18889        2.03623       -0.23820
H          1.04646        1.53467        1.80141
H          1.64225        0.10019        2.69902
H          2.38882        1.69418        2.98882
Mg         5.63306       -0.68163       -5.62504
C          8.41612       -1.39170       -4.92739
C          9.26724       -1.55146       -3.85235
C          8.52260       -1.26932       -2.72246
C          7.25769       -0.96431       -3.16129
N          7.19280       -1.02610       -4.50647
C          6.08215       -0.62340       -2.28653
N          4.93108       -1.52333       -2.48285
C          5.10482       -2.96462       -2.05470
H         10.30380       -1.85592       -3.88595
H          8.68037       -1.54120       -5.96864
H          8.87130       -1.31384       -1.69607
H          5.75940        0.39909       -2.56463
H          6.37315       -0.57911       -1.21702
C          5.53037       -3.06856       -0.57300
C          3.78640       -3.74269       -2.25655
C          6.13008       -3.73112       -2.93170
H          4.80713       -2.54772        0.08431
H          5.59735       -4.13272       -0.25111
H          6.54091       -2.63295       -0.41058
H          3.46423       -3.71274       -3.31557
H          3.92136       -4.81267       -1.96660
H          2.96094       -3.37665       -1.64923
H          5.85991       -3.65024       -4.00690
H          7.16881       -3.41037       -2.78577
H          6.14840       -4.81145       -2.66440
