96
speciation1571.ct
Na         1.61638       -0.06997       -0.44067
Mg         4.27025       -1.19473       -1.74705
C          3.97429       -4.25335       -2.31526
C          1.86300       -3.21839       -1.90117
O          3.28890       -3.03750       -1.96033
C          3.41090       -5.02373       -3.53863
C          1.35141       -4.34618       -0.95296
H          5.02173       -3.99557       -2.55307
H          4.02193       -4.93566       -1.43942
H          1.41060       -2.25506       -1.57259
H          1.44408       -3.38101       -2.91329
H          1.65899       -4.25524        0.10037
H          0.24118       -4.36192       -0.94743
H          1.68922       -5.35730       -1.25567
H          3.37172       -4.40005       -4.44461
H          2.39214       -5.42436       -3.35992
H          4.05523       -5.89759       -3.76353
H          2.28912        0.04122       -3.01660
C          3.27500       -0.23531       -4.89606
C          3.33022       -0.07801       -3.38591
C          2.63223       -1.52657       -5.31808
H          2.72603        0.63112       -5.33529
H          4.29309       -0.22156       -5.30567
H          3.20738       -2.33758       -4.84909
H          1.57539       -1.56198       -4.97733
C          2.71470       -1.66439       -6.83434
H          3.85763        0.84511       -3.34581
H          2.13886       -0.85134       -7.32666
H          3.77575       -1.60083       -7.16578
H          2.30664       -2.64658       -7.14005
C          2.49392        3.47321       -1.92189
C          3.68130        3.23405       -2.56031
C          4.37830        2.35381       -1.75157
C          3.56201        2.04854       -0.69290
N          2.43694        2.76135       -0.78393
C          3.90317        1.21390        0.47752
N          3.66593       -0.22069        0.16420
C          3.56772       -1.05380        1.41235
H          4.02949        3.69401       -3.47612
H          1.75089        4.20360       -2.22045
H          5.36726        1.99292       -1.92327
H          3.18730        1.57201        1.23338
H          4.89142        1.44582        0.91096
C          2.57208       -0.48027        2.46068
C          3.00339       -2.38421        1.00687
C          4.91639       -1.30895        2.09498
H          1.59302       -0.29392        1.97625
H          2.40107       -1.20454        3.28603
H          2.93652        0.44109        2.95855
H          3.70188       -2.88215        0.31297
H          2.85137       -3.06010        1.87455
H          2.01906       -2.18466        0.54588
H          5.58037       -1.86936        1.41619
H          5.38595       -0.36433        2.43808
H          4.77038       -1.96075        2.98547
Mg         1.22956        3.42702        0.65106
C          0.30103        5.46328        2.20745
C          0.00166        3.39174        3.28487
O          0.05251        4.07597        2.05000
C          1.60916        5.80172        2.93683
C         -0.36593        1.94419        3.03363
H          0.37680        5.88852        1.18421
H         -0.56683        5.96666        2.68638
H          0.98049        3.40157        3.80757
H         -0.79301        3.83035        3.93151
H          0.41543        1.49231        2.39902
H         -0.42361        1.39580        3.99823
H         -1.34252        1.87284        2.51123
H          2.46424        5.27773        2.46031
H          1.78545        6.89676        2.88950
H          1.55388        5.52779        4.01092
C          7.12394        0.98346       -5.77891
C          8.12337        0.15139       -6.21438
C          8.08147       -0.98442       -5.42502
C          7.09288       -0.84567       -4.53309
N          6.44313        0.39003       -4.70428
C          6.73750       -1.82811       -3.44184
N          6.47659       -1.19804       -2.12751
C          7.65566       -0.42979       -1.53964
H          8.80289        0.37129       -7.02657
H          6.90474        1.97105       -6.16117
H          8.74623       -1.82621       -5.50880
H          7.51089       -2.62506       -3.37092
H          5.80154       -2.32038       -3.76908
C          8.12182        0.82188       -2.33769
C          7.25233        0.08169       -0.16938
C          8.89466       -1.33081       -1.34890
H          7.31102        1.53399       -2.54789
H          8.89105        1.38183       -1.76257
H          8.64585        0.57181       -3.27563
H          7.06475       -0.75759        0.50760
H          8.04760        0.70434        0.29667
H          6.36772        0.70193       -0.30416
H          8.65022       -2.22409       -0.73495
H          9.30852       -1.66060       -2.32333
H          9.70408       -0.76736       -0.83186
