95
speciation1410.ct
Na         1.08384        0.03270       -0.04361
Mg         1.64978       -0.13940        3.91043
C         -1.71187       -1.08312        0.69142
C         -1.79088        0.10418       -1.34322
O         -1.23616        0.03270       -0.04361
C         -1.39618       -2.44948        0.06588
C         -1.21684        1.30783       -2.07807
H         -1.20696       -1.04867        1.67962
H         -2.79997       -0.98358        0.89691
H         -1.54422       -0.78729       -1.95594
H         -2.89341        0.23895       -1.27597
H         -0.12056        1.18533       -2.21209
H         -1.68864        1.38981       -3.08101
H         -1.41421        2.24091       -1.51049
H         -0.31264       -2.53336       -0.15701
H         -1.68025       -3.25318        0.77721
H         -1.98290       -2.61874       -0.86038
H         -0.23576       -1.29373        5.32593
C          1.39884       -2.74363        5.23706
C          0.51153       -1.68423        4.60286
C          2.21417       -2.14885        6.38576
H          0.76314       -3.57776        5.60685
H          2.08927       -3.13647        4.45911
H          2.84552       -1.31972        5.99788
H          1.52826       -1.74702        7.16192
C          3.11613       -3.20430        7.01778
H         -0.02453       -2.13615        3.74175
H          2.50613       -4.03560        7.43155
H          3.82345       -3.61128        6.26370
H          3.70050       -2.74569        7.84291
C          2.63919        2.64746        3.62526
C          3.37493        3.46571        2.79384
C          3.96077        2.64735        1.84386
C          3.55571        1.35489        2.13445
N          2.76014        1.36758        3.23497
C          3.93666        0.09816        1.36535
N          3.45384        0.03270       -0.04361
C          3.85312       -1.19759       -0.77059
H          3.44600        4.54340        2.85924
H          2.01121        2.97272        4.44580
H          4.58952        2.97018        1.02575
H          3.53032       -0.75462        1.94576
H          5.04458        0.05992        1.39690
C          3.29897       -2.47748       -0.09728
C          3.25146       -1.10627       -2.18153
C          5.39022       -1.30815       -0.88563
H          2.19467       -2.42152        0.00367
H          3.55167       -3.37508       -0.70225
H          3.73838       -2.64599        0.90743
H          3.62080       -0.20116       -2.70660
H          3.52175       -2.00009       -2.78529
H          2.14235       -1.05047       -2.12307
H          5.81845       -0.37167       -1.29915
H          5.85847       -1.51082        0.10133
H          5.67336       -2.15234       -1.54928
Na         4.24383        1.88426       -1.29442
Mg         4.41516        3.69584       -4.41430
H          3.18951        2.61931       -6.48830
C          4.66753        3.93944       -7.39452
C          3.61561        3.63334       -6.33134
C          4.07230        3.88325       -8.80976
H          5.07661        4.95427       -7.20138
H          5.48966        3.19768       -7.30719
H          3.67182        2.86471       -9.00738
H          3.24014        4.61556       -8.90133
C          5.12902        4.20982       -9.86308
H          2.79821        4.38370       -6.38074
H          5.52042        5.23820       -9.70984
H          5.97028        3.48692       -9.80367
H          4.68049        4.14940      -10.87751
C          0.84506        4.88812       -2.71330
C          0.80466        4.84240       -1.33617
C          2.11135        4.81718       -0.88469
C          2.92053        4.84705       -1.94719
N          2.18091        4.88484       -3.14913
C          4.41939        4.90265       -1.88379
N          5.03382        3.73583       -2.54523
C          6.51962        3.71914       -2.49912
H         -0.09375        4.84429       -0.73077
H         -0.01767        4.93108       -3.36660
H          2.42375        4.80672        0.15319
H          4.71239        4.93966       -0.81562
H          4.71900        5.84441       -2.38149
C          7.03021        3.57649       -1.04689
C          6.98604        2.50041       -3.30778
C          7.14891        4.98366       -3.13373
H          6.58310        2.68464       -0.56020
H          8.13606        3.46853       -1.03190
H          6.79558        4.47269       -0.43647
H          6.66856        2.60118       -4.36864
H          8.09448        2.41044       -3.28360
H          6.54577        1.56743       -2.89752
H          6.81586        5.10877       -4.18553
H          6.89873        5.90308       -2.56586
H          8.25843        4.90590       -3.12410
