96
speciation1703.ct
Na         2.64609       -0.80505        1.61947
Mg         2.12552        4.82932       -0.95119
C          3.47121        7.26383       -0.11140
C          4.73527        6.03645       -1.71084
O          3.73503        5.99618       -0.70048
C          3.17515        8.42658       -1.07862
C          6.12924        6.48929       -1.20500
H          2.59570        7.14715        0.54793
H          4.30248        7.54949        0.56907
H          4.87458        5.01954       -2.13024
H          4.43364        6.69781       -2.54904
H          6.52020        5.78352       -0.44344
H          6.84442        6.52506       -2.05453
H          6.10734        7.51292       -0.77445
H          2.32318        8.19013       -1.72419
H          2.91172        9.33291       -0.49575
H          4.04596        8.68963       -1.71268
H          4.84738        0.95314       -4.63403
C          6.37376        2.46267       -4.39540
C          4.91147        2.05012       -4.47010
C          7.07650        2.14528       -5.72210
H          6.43610        3.55103       -4.18225
H          6.85769        1.90387       -3.56477
H          6.99031        1.05851       -5.94424
H          6.58816        2.71451       -6.54339
C          8.55333        2.51682       -5.67625
H          4.40294        2.56034       -5.31130
H          8.67164        3.60111       -5.46856
H          9.07219        1.93070       -4.88832
H          9.02128        2.28738       -6.65719
C          5.43844       -0.64539        0.49792
C          6.41703        0.07985       -0.13474
C          5.88671        1.33010       -0.38379
C          4.59020        1.31916        0.09552
N          4.33703        0.10902        0.66307
C          3.64841        2.52307        0.08921
N          2.78932        2.74305       -1.11492
C          1.72391        1.65971       -1.31261
H          7.41152       -0.27155       -0.37412
H          5.52691       -1.67446        0.82780
H          6.39854        2.15778       -0.84867
H          3.06062        2.51712        1.01931
H          4.29526        3.41572        0.20076
C          0.82950        1.49477       -0.06776
C          0.77183        1.98305       -2.48402
C          2.31508        0.27883       -1.73078
H          0.35524        2.46297        0.18403
H          0.01909        0.75692       -0.26005
H          1.39484        1.11401        0.80398
H          1.29999        1.92770       -3.46015
H         -0.02161        1.20532       -2.57692
H          0.24707        2.94312       -2.33443
H          3.00860        0.37981       -2.59225
H          2.80505       -0.27114       -0.93579
H          1.51070       -0.43079       -2.02780
Mg         3.83723        2.40089       -2.77170
C          1.82030        4.50679       -3.78905
C          0.79684        6.51751       -3.08711
O          1.26925        5.24011       -2.69409
C          2.80786        5.17911       -4.73969
C         -0.46532        6.44953       -3.95375
H          2.42481        3.70737       -3.35680
H          0.99450        4.04447       -4.37304
H          0.50892        7.07953       -2.19480
H          1.59067        7.10759       -3.58565
H         -1.31184        6.03241       -3.36905
H         -0.73138        7.47571       -4.28565
H         -0.31232        5.83596       -4.86451
H          3.71196        5.49467       -4.19921
H          3.11881        4.42465       -5.49103
H          2.36083        6.01755       -5.30267
C          0.92242        4.48177        1.91120
C          0.06345        4.89927        2.90516
C         -0.61839        5.95769        2.39718
C         -0.14903        6.16038        1.10687
N          0.78387        5.20961        0.76603
C         -0.61204        7.32725        0.28125
N         -1.19908        8.33107        1.18863
C         -1.71413        9.58708        0.61961
H         -0.05523        4.50561        3.90840
H          1.61741        3.67782        2.05554
H         -1.37057        6.53466        2.92575
H          0.28013        7.76590       -0.18759
H         -1.35616        6.96942       -0.46660
C         -3.02668        9.32252       -0.13341
C         -2.00077       10.52924        1.80554
C         -0.68622       10.27219       -0.30447
H         -3.76375        8.83617        0.54273
H         -3.46350       10.27565       -0.50122
H         -2.85794        8.65978       -1.00620
H         -1.06865       10.72485        2.38111
H         -2.40467       11.50517        1.45834
H         -2.73833       10.07318        2.50139
H          0.26016       10.46646        0.24547
H         -0.46385        9.64947       -1.19475
H         -1.08435       11.24384       -0.66992
