96
speciation1780.ct
Na         1.01443        0.84674        0.12571
Mg        -0.02341       -1.57432        0.04205
C          0.20079       -4.02871        1.80710
C         -2.01000       -3.35538        1.28173
O         -0.65782       -2.94696        1.40748
C         -0.03282       -5.43457        1.21657
C         -2.72292       -3.51655        2.63362
H          1.22248       -3.77288        1.49301
H          0.19037       -4.09581        2.91688
H         -2.53214       -2.60142        0.69640
H         -2.12897       -4.26765        0.67092
H         -2.79255       -2.56591        3.19237
H         -3.76052       -3.87148        2.46186
H         -2.20212       -4.25525        3.27493
H          0.02945       -5.41336        0.11145
H          0.75438       -6.11902        1.59893
H         -1.00065       -5.87662        1.53263
H          4.54761        2.58818       -4.63438
C          6.21817        1.38512       -3.92643
C          4.95431        2.25084       -3.65734
C          5.99262        0.10714       -4.75407
H          6.97857        1.99879       -4.46280
H          6.67082        1.09204       -2.95779
H          6.96160       -0.43499       -4.82317
H          5.26166       -0.55505       -4.24270
C          5.53102        0.39571       -6.18338
H          5.31185        3.16737       -3.14363
H          4.53583        0.88347       -6.18730
H          6.26523        1.04885       -6.70336
H          5.45275       -0.55738       -6.74862
C          1.21689        1.84395       -3.91151
C          0.64227        0.73545       -4.43115
C          0.16688        0.03843       -3.37834
C          0.38374        0.78268       -2.21085
N          1.23046        1.79458       -2.55798
C         -0.89797        0.97101       -1.29931
N         -0.96486        0.32592        0.05547
C         -2.10591        0.75725        1.00093
H          0.57566        0.44715       -5.46801
H          1.79801        2.52824       -4.50482
H         -0.38894       -0.80615       -3.57242
H         -1.80852        0.67840       -1.87305
H         -0.99279        2.06396       -1.16884
C         -3.47622        0.25030        0.50639
C         -1.96560        0.20640        2.45268
C         -2.21512        2.29030        1.18064
H         -3.52063       -0.83986        0.43502
H         -4.27721        0.53184        1.23667
H         -3.75010        0.68336       -0.46878
H         -1.22816        0.74667        3.06927
H         -2.88510        0.36804        3.05392
H         -1.77709       -0.86843        2.45168
H         -1.25761        2.71989        1.54322
H         -2.54079        2.80517        0.25787
H         -2.98634        2.52796        1.95549
Mg         3.26406        1.65745       -2.27740
C         -1.91603       -2.21994       -2.28534
C          0.05573       -3.51411       -2.35114
O         -0.57418       -2.38863       -1.75923
C         -2.90483       -3.37810       -2.23823
C          1.48357       -3.64941       -1.86343
H         -2.39002       -1.37233       -1.76965
H         -1.91572       -1.98366       -3.36807
H         -0.46929       -4.46104       -2.10330
H          0.11740       -3.37262       -3.45278
H          1.50885       -3.81490       -0.77325
H          1.97506       -4.50663       -2.37119
H          2.03459       -2.73751       -2.12801
H         -3.14282       -3.67102       -1.21327
H         -3.84737       -3.01968       -2.71994
H         -2.55510       -4.23760       -2.84356
C          5.69513        1.58592       -0.50141
C          6.28608        0.77530        0.44395
C          5.47427       -0.32482        0.57573
C          4.39292       -0.11313       -0.26222
N          4.54558        1.03503       -0.93699
C          3.21150       -1.03531       -0.44236
N          2.07323       -0.83048        0.48514
C          2.32425       -0.48449        1.92175
H          7.20193        0.96874        0.99582
H          6.08389        2.53794       -0.84352
H          5.63105       -1.15087        1.24734
H          3.55344       -2.09336       -0.41638
H          2.83406       -0.83430       -1.46477
C          3.08605        0.85443        2.20503
C          0.96384       -0.21056        2.52401
C          2.94434       -1.65970        2.66691
H          2.68832        1.69500        1.59614
H          2.96779        1.13861        3.27286
H          4.16998        0.84189        2.12271
H          0.32525       -1.04506        2.26904
H          1.01375       -0.11260        3.63569
H          0.59238        0.74107        2.13252
H          2.21438       -2.48097        2.76747
H          3.83146       -2.05963        2.15525
H          3.20119       -1.37059        3.70836
