95
speciation1789.ct
Na         7.43487        1.53455        2.24781
Mg         3.69666        2.91466       -2.78543
C          5.22492        5.06151       -1.48103
C          2.87338        5.45570       -1.22090
O          3.89562        4.61968       -1.75795
C          5.54412        5.42598       -0.01434
C          2.82741        6.81962       -1.91279
H          5.88854        4.22721       -1.72597
H          5.51427        5.88491       -2.15990
H          1.89632        4.96314       -1.34962
H          2.96820        5.57334       -0.10919
H          2.62244        6.67103       -2.99123
H          2.03073        7.44093       -1.46398
H          3.78989        7.36294       -1.79488
H          5.26632        4.60753        0.68082
H          6.63805        5.61220        0.09051
H          5.03554        6.36296        0.29048
H          6.31772        3.68836       -7.96222
C          6.17574        3.19615       -5.83784
C          5.71030        3.05480       -7.28905
C          7.62972        2.76930       -5.61408
H          6.05513        4.25270       -5.51442
H          5.53009        2.56686       -5.19318
H          7.84558        2.88005       -4.53995
H          7.76955        1.70531       -5.89449
C          8.63715        3.64179       -6.35243
H          4.66237        3.41201       -7.36017
H          8.50035        3.56098       -7.43778
H          8.51887        4.70539       -6.06010
H          9.66705        3.30742       -6.10874
C          8.60568        2.15443       -0.56293
C          8.30318        2.26867       -1.89811
C          6.94821        2.00377       -2.03062
C          6.48638        1.75908       -0.74946
N          7.49552        1.84134        0.14680
C          5.07271        1.45575       -0.32043
N          4.07889        1.39637       -1.43413
C          2.71996        0.97327       -0.97273
H          9.00517        2.52387       -2.67838
H          9.57709        2.30441       -0.11296
H          6.36543        2.01218       -2.93553
H          5.13715        0.47363        0.17876
H          4.79511        2.23042        0.40462
C          2.17033        1.88571        0.15028
C          1.78002        1.07039       -2.17649
C          2.71583       -0.49367       -0.47482
H          2.18457        2.94575       -0.16443
H          1.12236        1.61114        0.40234
H          2.75376        1.78902        1.08868
H          2.15204        0.43447       -3.00929
H          0.75420        0.73928       -1.91039
H          1.71374        2.12096       -2.52635
H          3.11060       -1.17340       -1.25881
H          3.31157       -0.62740        0.45036
H          1.67939       -0.80950       -0.22172
Na         2.76380       -0.59031       -8.49272
Mg         5.60826        1.10654       -7.99588
H          6.75302        0.36705      -10.50003
C          8.36438        1.62501       -9.83612
C          6.86062        1.29868       -9.90300
C          9.14490        0.49804       -9.15190
H          8.78156        1.76804      -10.86359
H          8.50158        2.58075       -9.30829
H          8.68806        0.27666       -8.16568
H          9.09117       -0.41130       -9.79099
C         10.61404        0.86008       -8.92864
H          6.37682        2.10543      -10.49809
H         11.12276        1.10888       -9.88439
H         10.69559        1.72564       -8.23640
H         11.13982       -0.00444       -8.46600
C          2.11583        3.58988       -5.26351
C          1.60744        3.29629       -6.51334
C          2.11603        2.06863       -6.86645
C          2.92096        1.66075       -5.82380
N          2.92338        2.60507       -4.80556
C          3.58716        0.31514       -5.76852
N          4.27389       -0.15496       -7.02143
C          4.97780       -1.45898       -6.81654
H          0.92697        3.89139       -7.10525
H          1.87972        4.48231       -4.70873
H          1.89766        1.52157       -7.77444
H          4.25567        0.33646       -4.89681
H          2.75153       -0.38445       -5.56445
C          4.03520       -2.59370       -6.32273
C          5.56287       -1.93749       -8.15891
C          6.12943       -1.26506       -5.81138
H          3.22801       -2.79239       -7.06202
H          4.60730       -3.53610       -6.18149
H          3.56846       -2.37232       -5.34282
H          6.26710       -1.19975       -8.58897
H          6.12834       -2.89462       -8.00573
H          4.76168       -2.15248       -8.89471
H          6.71459       -0.36560       -6.09159
H          5.74999       -1.13490       -4.77702
H          6.80177       -2.14450       -5.78295
