81
speciation772.ct
Na         0.92523        0.06141        0.02526
Mg        -2.03791        1.89078       -0.48255
C         -2.53465        4.15556        1.27913
C         -1.85390        4.53460       -0.96467
O         -1.81755        3.65349        0.15180
C         -4.05995        4.19219        1.14053
C         -0.97437        5.77528       -0.77917
H         -2.30783        3.56882        2.18804
H         -2.13869        5.14761        1.55981
H         -1.45364        3.98352       -1.84061
H         -2.88002        4.83131       -1.25175
H          0.08002        5.47728       -0.60572
H         -1.03107        6.40209       -1.69292
H         -1.31976        6.41081        0.06075
H         -4.41162        4.56543        0.16393
H         -4.45355        4.88896        1.91370
H         -4.49167        3.18722        1.31901
H          2.40672        1.52772       -3.37091
C          2.76620        3.65988       -3.63142
C          2.01517        2.49368       -2.98949
C          4.28453        3.60346       -3.39321
H          2.58633        3.63396       -4.72765
H          2.36250        4.61577       -3.23281
H          4.70026        2.66857       -3.82770
H          4.74891        4.46589       -3.91950
C          4.66953        3.68374       -1.91683
H          0.93202        2.56977       -3.21510
H          4.26531        4.61142       -1.45832
H          4.29291        2.79841       -1.36809
H          5.77616        3.69488       -1.82262
C         -3.67081        1.39584       -3.05631
C         -3.95680        0.23880       -3.76652
C         -3.33433       -0.80494       -3.10139
C         -2.70526       -0.23986       -2.01770
N         -2.90969        1.08148       -1.99078
C         -1.90500       -0.93465       -0.96849
N         -1.44477        0.06141        0.02526
C         -1.72974       -0.27930        1.44925
H         -4.54742        0.15809       -4.66496
H         -4.00175        2.38894       -3.29403
H         -3.35244       -1.85703       -3.36819
H         -1.02362       -1.41903       -1.43758
H         -2.55018       -1.72162       -0.53459
C         -1.14624       -1.65812        1.84384
C         -1.02265        0.76492        2.31010
C         -3.24992       -0.24279        1.70865
H         -0.04821       -1.67731        1.67301
H         -1.32861       -1.84994        2.92305
H         -1.59518       -2.50025        1.28227
H         -1.30397        1.76590        1.97646
H         -1.28127        0.64256        3.38322
H          0.08096        0.69337        2.20224
H         -3.67596        0.73425        1.39898
H         -3.78322       -1.04361        1.15543
H         -3.45995       -0.40068        2.78729
Mg         2.23855        2.63849       -0.97901
C          2.57995        3.91000        1.59364
C          3.10359        3.76005        2.85492
C          3.63001        2.48590        2.91789
C          3.39195        1.90090        1.68727
N          2.75412        2.77974        0.88276
C          3.81257        0.49779        1.33552
N          3.29523        0.06141        0.02526
C          3.69201       -1.29651       -0.41806
H          3.11587        4.50128        3.64590
H          2.10080        4.79709        1.20991
H          4.13626        2.03912        3.76217
H          3.40261       -0.15392        2.12940
H          4.92093        0.47102        1.36018
C          3.28216       -2.38269        0.60434
C          2.94823       -1.59142       -1.73411
C          5.20611       -1.36304       -0.69778
H          2.17959       -2.38474        0.74781
H          3.58279       -3.38911        0.24113
H          3.76861       -2.24149        1.58958
H          3.21002       -0.84303       -2.51173
H          3.20860       -2.60264       -2.11759
H          1.84798       -1.55825       -1.57897
H          5.48712       -0.60059       -1.45637
H          5.80626       -1.19259        0.21779
H          5.48349       -2.36455       -1.09187
