83
speciation302.ct
Na         1.00500        0.31969        0.32154
Mg         2.88994        3.75191        2.61490
C          0.68083       -1.70535        3.09056
C         -1.10267       -0.22667        2.77094
O          0.24447       -0.52000        2.40156
C         -0.12087       -3.02120        2.97147
C         -1.24879        0.24141        4.22707
H          1.66056       -1.94484        2.73674
H          0.82802       -1.47732        4.16674
H         -1.47524        0.56115        2.12995
H         -1.80950       -1.06678        2.62399
H         -0.60613        1.12517        4.41067
H         -2.31166        0.50213        4.42016
H         -0.99303       -0.56830        4.94621
H         -0.17460       -3.35653        1.91964
H          0.41417       -3.80290        3.55562
H         -1.13012       -2.94553        3.41771
C          3.39277        6.91338        2.37351
C          2.80501        7.78228        1.48230
C          1.87536        7.05409        0.75209
C          1.90322        5.73966        1.21943
N          2.84985        5.70087        2.21483
C          0.81526        4.60131        0.76024
N          0.65763        3.14570        0.15039
C         -0.76831        3.03468       -0.39933
H          3.03650        8.83336        1.37440
H          4.19123        7.14009        3.06785
H          1.22769        7.45886       -0.01397
H          0.19387        4.57951        1.67137
H          0.30789        5.25255        0.04586
C         -1.14044        4.03296       -1.54561
C         -0.94729        1.66436       -1.03516
C         -1.83555        3.19115        0.71314
H         -0.42460        3.97269       -2.38995
H         -2.15224        3.78646       -1.94842
H         -1.26138        5.08636       -1.22865
H         -0.81571        0.91974       -0.26226
H         -1.97993        1.52702       -1.43589
H         -0.23319        1.50177       -1.87173
H         -1.62492        2.52464        1.55648
H         -1.87898        4.22107        1.11438
H         -2.85407        2.96159        0.32666
Na         0.81240        2.14603        1.97918
C          0.38189       -1.50554       -2.64335
C         -1.54535       -1.50029       -1.34721
O         -0.12645       -1.20169       -1.31607
C          0.12436       -2.98489       -3.15161
C         -2.25214       -1.37462       -0.03411
H         -0.01969       -0.80344       -3.40166
H          1.46269       -1.38073       -2.63208
H         -2.08528       -0.91978       -2.13322
H         -1.69138       -2.58924       -1.52424
H         -2.40329       -0.32864        0.26278
H         -3.27077       -1.81660       -0.11628
H         -1.67644       -1.96073        0.70036
H         -0.94208       -3.18238       -3.38140
H          0.64679       -3.16748       -4.10895
H          0.47197       -3.73625       -2.41009
C          2.53244        1.56805        4.27497
C          2.79321        0.27835        4.61232
C          3.37829       -0.28896        3.50704
C          3.42812        0.69213        2.50768
N          2.93003        1.80295        3.01497
C          4.01550        0.72401        1.13123
N          3.35693       -0.20821        0.20593
C          4.11878       -1.50190        0.01726
H          2.61462       -0.18821        5.57209
H          2.12468        2.32452        4.93228
H          3.72074       -1.29932        3.55016
H          5.10664        0.61702        1.20128
H          3.84944        1.74607        0.72113
C          4.27246       -2.29884        1.30649
C          3.35646       -2.37441       -0.97632
C          5.56329       -1.30357       -0.53408
H          3.28976       -2.49292        1.72552
H          4.72655       -3.29472        1.14013
H          4.96494       -1.76730        1.98829
H          3.40879       -1.91739       -1.98162
H          3.81472       -3.38534       -1.05026
H          2.30257       -2.49395       -0.64614
H          5.56616       -0.78566       -1.51179
H          6.23575       -0.75589        0.15639
H          6.05664       -2.29464       -0.65804
