95
speciation1188.ct
Na        -2.19027       -0.15155        0.53960
Mg         2.26365        0.70639       -2.65665
C         -2.50659        0.68205        3.49863
C         -3.77144        2.05583        2.17211
O         -2.60684        1.23795        2.19149
C         -1.29686       -0.22068        3.65001
C         -3.87225        2.87802        0.89907
H         -2.37256        1.49495        4.25403
H         -3.41411        0.08665        3.74915
H         -4.69071        1.44073        2.28545
H         -3.73113        2.81068        2.99835
H         -3.94698        2.21234        0.01702
H         -4.78951        3.50680        0.95445
H         -2.99526        3.55193        0.79775
H         -0.36662        0.35344        3.48002
H         -1.27264       -0.61334        4.69136
H         -1.36124       -1.07491        2.94686
H          1.49507        2.91229       -1.36845
C          1.95064        2.24716        0.61565
C          1.52913        1.92806       -0.86347
C          2.02299        1.06130        1.60475
H          2.93407        2.75959        0.60563
H          1.19889        2.96550        1.02434
H          1.04011        0.56521        1.67276
H          2.78467        0.33464        1.25722
C          2.37910        1.49543        3.03725
H          0.49570        1.52445       -0.81679
H          3.35942        2.01796        3.07896
H          2.44069        0.60508        3.70410
H          1.60222        2.17200        3.46695
C          3.12254       -2.14820       -2.24675
C          2.95194       -3.36759       -1.61214
C          1.80755       -3.25925       -0.87430
C          1.29003       -2.00180       -1.10514
N          2.13487       -1.27718       -1.91441
C          0.03076       -1.55075       -0.38234
N         -1.21134       -1.36571       -1.15956
C         -1.91164       -2.60349       -1.65610
H          3.59139       -4.24081       -1.65740
H          3.96274       -1.91015       -2.88391
H          1.37512       -4.02304       -0.23373
H          0.27021       -0.59190        0.08385
H         -0.18381       -2.23079        0.46920
C         -2.32066       -3.54991       -0.50191
C         -3.19552       -2.18928       -2.40996
C         -1.05675       -3.39342       -2.67227
H         -2.88261       -3.00006        0.28157
H         -2.96993       -4.37183       -0.87811
H         -1.43684       -4.03767       -0.04034
H         -2.94568       -1.58779       -3.30787
H         -3.73919       -3.09816       -2.76633
H         -3.88338       -1.61555       -1.75879
H         -0.72876       -2.73862       -3.50772
H         -0.17244       -3.85013       -2.20970
H         -1.62121       -4.25346       -3.09634
Na         0.19143        6.16068       -3.83657
Mg        -0.84828       -0.19277       -2.66994
H          5.06937        0.92183       -2.64081
C          4.87536        2.56043       -4.02770
C          4.36908        1.20785       -3.45049
C          4.82735        3.67564       -2.97857
H          5.93653        2.43766       -4.36609
H          4.28492        2.86033       -4.92363
H          3.76909        3.82881       -2.68662
H          5.41511        3.36172       -2.08903
C          5.40532        5.00558       -3.47859
H          4.49212        0.46988       -4.27611
H          6.48793        4.90992       -3.71689
H          4.86634        5.36899       -4.37683
H          5.30065        5.76853       -2.67527
C          1.25248        0.08600       -5.43759
C          0.64236        0.57682       -6.58795
C          0.26356        1.86338       -6.32800
C          0.65285        2.11608       -5.00356
N          1.24784        1.01090       -4.45149
C          0.50859        3.41368       -4.27724
N         -0.32472        4.42139       -4.97153
C         -1.81034        4.36127       -4.82020
H          0.52988        0.06428       -7.53923
H          1.69747       -0.89958       -5.34852
H         -0.17458        2.55050       -7.02137
H          0.15747        3.24225       -3.25081
H          1.53470        3.82815       -4.17972
C         -2.24103        4.27201       -3.33992
C         -2.37896        5.66798       -5.41102
C         -2.44297        3.18891       -5.59510
H         -1.81875        5.11663       -2.75786
H         -3.34879        4.30614       -3.25821
H         -1.92976        3.31403       -2.87828
H         -2.10583        5.76371       -6.48498
H         -3.48899        5.69506       -5.33512
H         -1.97831        6.55378       -4.87446
H         -2.22637        3.26595       -6.68114
H         -2.09738        2.21261       -5.20179
H         -3.54981        3.20916       -5.48926
