83
speciation453.ct
Na         1.29397        0.03888        0.34654
Mg         0.62200       -4.58093       -3.61124
C         -1.00431        2.01118        0.80359
C          0.97315        2.63979        1.99170
O          0.20918        1.57555        1.42320
C         -0.83910        3.10155       -0.26722
C          0.27496        3.33067        3.17905
H         -1.45864        1.13070        0.31949
H         -1.74547        2.33396        1.57066
H          1.91222        2.20431        2.38682
H          1.27651        3.38227        1.22678
H          0.07090        2.60178        3.99144
H          0.93181        4.13211        3.58010
H         -0.67779        3.81559        2.88128
H         -0.10825        2.78166       -1.03264
H         -1.81863        3.29529       -0.75517
H         -0.51892        4.07378        0.17643
C          0.35972       -1.70252       -4.08992
C          0.14988       -0.46872       -3.51229
C          0.06021       -0.68065       -2.15585
C          0.23358       -2.03966       -1.96199
N          0.40714       -2.66242       -3.14818
C          0.23905       -2.76888       -0.65848
N          0.02468       -1.87368        0.49889
C          0.01984       -2.59041        1.81352
H          0.06641        0.48083       -4.02264
H          0.46649       -1.89101       -5.14934
H         -0.11175        0.07820       -1.40884
H          1.22381       -3.26744       -0.59029
H         -0.56895       -3.52393       -0.72350
C          1.37831       -3.25611        2.10973
C         -0.27519       -1.56640        2.92095
C         -1.09129       -3.67849        1.87879
H          2.19146       -2.50599        2.08847
H          1.36504       -3.73534        3.11295
H          1.61172       -4.06327        1.38589
H         -1.26324       -1.08411        2.76108
H         -0.29473       -2.06384        3.91665
H          0.50722       -0.77921        2.94359
H         -2.09303       -3.24311        1.67773
H         -0.91344       -4.50942        1.16630
H         -1.11938       -4.14568        2.88798
Na        -2.00129       -1.21807        0.25347
C         -0.43561       -7.15037       -3.45180
C          1.76485       -7.10900       -4.15703
O          0.54415       -6.39894       -4.13785
C         -1.71149       -6.33427       -3.32295
C          2.82994       -6.28432       -4.86538
H         -0.68643       -8.05583       -4.04928
H         -0.09966       -7.44529       -2.43070
H          2.12571       -7.35725       -3.13343
H          1.63827       -8.04269       -4.75395
H          3.04928       -5.36441       -4.28455
H          3.76059       -6.88355       -4.95939
H          2.48115       -6.00711       -5.88239
H         -2.05265       -6.00038       -4.32532
H         -2.50657       -6.96041       -2.86493
H         -1.53509       -5.44758       -2.67900
C          5.58777        1.29819       -4.63598
C          5.03175        0.04717       -4.80537
C          4.06638       -0.11203       -3.81960
C          4.03685        0.99302       -3.07416
N          4.97880        1.94076       -3.54327
C          3.14090        1.22613       -1.88863
N          3.28002        0.19325       -0.82936
C          4.58332        0.16842       -0.08916
H          5.31251       -0.66773       -5.56871
H          6.36977        1.72913       -5.23930
H          3.45247       -0.99014       -3.67459
H          2.10127        1.19576       -2.25950
H          3.29288        2.24236       -1.47651
C          4.96153        1.55072        0.48832
C          4.43083       -0.81785        1.07518
C          5.76313       -0.34226       -0.95620
H          4.14956        1.95091        1.12835
H          5.89057        1.47613        1.09746
H          5.18490        2.27846       -0.32016
H          4.31068       -1.85971        0.68569
H          5.32395       -0.80604        1.73342
H          3.53805       -0.56535        1.68046
H          5.51734       -1.31852       -1.42852
H          6.05684        0.37084       -1.75127
H          6.68132       -0.47622       -0.34421
