83
speciation514.ct
Na         1.41014       -0.28957       -1.42052
Mg         2.11496        0.07561        1.16117
C          0.46789       -3.04047       -2.62417
C          1.06476       -1.58171       -4.35045
O          0.70120       -1.68049       -2.99434
C         -0.73289       -3.71446       -3.30391
C          1.52260       -0.17560       -4.66016
H          1.36528       -3.67138       -2.81509
H          0.22359       -3.06239       -1.54420
H          1.86396       -2.30690       -4.64619
H          0.14957       -1.74306       -4.94883
H          2.58116       -0.03139       -4.36240
H          1.42679       -0.00643       -5.75238
H          0.87738        0.54868       -4.12170
H         -0.64324       -3.71972       -4.40823
H         -0.77492       -4.78275       -2.99170
H         -1.67696       -3.22206       -2.99752
C          5.14918        0.78374       -0.75934
C          6.21003       -0.17533       -0.76487
C          5.63746       -1.35233       -1.07859
C          4.35286       -1.04019       -1.18581
N          3.93954        0.19470       -1.03203
C          3.16568       -1.76607       -1.46048
N          2.26304       -1.63633       -0.26523
C          2.48453       -2.78905        0.61112
H          7.27990       -0.06907       -0.55379
H          5.35085        1.81500       -0.53410
H          6.05691       -2.35102       -1.16105
H          3.16800       -2.65431       -2.07614
H          2.82317       -1.19256       -2.35558
C          3.79454       -2.55204        1.40039
C          1.27862       -2.88384        1.53042
C          2.59702       -4.13643       -0.11392
H          3.85077       -1.51372        1.79838
H          3.93228       -3.31003        2.19020
H          4.68057       -2.64650        0.77264
H          0.33062       -3.04097        0.98199
H          1.40928       -3.69758        2.27805
H          1.16453       -1.91543        1.98797
H          1.66290       -4.35746       -0.64906
H          3.45912       -4.15984       -0.80407
H          2.79134       -4.93231        0.60974
Na         2.65897        2.05272       -1.81258
C          2.42225       -1.09354        4.04244
C          2.57942        1.19850        4.24715
O          2.75978        0.09818        3.32170
C          0.92333       -1.19601        4.37079
C          3.54284        1.23011        5.46081
H          2.70419       -1.96920        3.48256
H          3.08307       -1.30353        4.90611
H          2.74996        2.17074        3.79464
H          1.53328        1.25727        4.58925
H          4.57988        1.46962        5.14504
H          3.19320        2.02142        6.15799
H          3.56684        0.31140        6.07432
H          0.31958       -0.86124        3.50470
H          0.69170       -2.24693        4.63214
H          0.59922       -0.54890        5.20400
C         -1.60197       -1.03253        0.11163
C         -2.60975       -0.14347        0.48071
C         -2.12845        1.10627        0.20628
C         -0.86241        0.91144       -0.30942
N         -0.54401       -0.38085       -0.39519
C          0.09167        1.85130       -0.83798
N          1.38854        1.76971       -0.09899
C          1.55151        2.89982        0.81827
H         -3.59686       -0.37842        0.86853
H         -1.70377       -2.11184        0.13676
H         -2.62694        2.05729        0.34466
H         -0.41989        2.81349       -0.83131
H          0.26550        1.59820       -1.90390
C          0.50130        2.75233        1.94090
C          2.95456        2.81260        1.41093
C          1.47278        4.27537        0.09845
H          0.61836        1.76551        2.44021
H          0.59296        3.56263        2.68575
H         -0.53159        2.78722        1.54913
H          3.75952        2.97094        0.67358
H          3.06508        3.57492        2.21213
H          3.12877        1.79311        1.77194
H          2.31656        4.36815       -0.61952
H          0.56343        4.49450       -0.48153
H          1.52523        5.08613        0.84733
