110
speciation2382.ct
Na         3.64680        1.99607        1.92259
Mg        -0.02246        1.98962       -6.84316
C          4.37040        5.11590        1.26812
C          6.12341        3.84214        2.09108
O          4.71685        4.01636        2.12340
C          4.98886        6.49837        1.67476
C          6.53027        2.55188        2.76911
H          4.66909        4.90616        0.21788
H          3.27243        5.26773        1.28226
H          6.51708        3.82569        1.04798
H          6.61941        4.64275        2.68300
H          6.10054        1.68516        2.23003
H          7.63948        2.47965        2.75078
H          6.18922        2.55686        3.82546
H          6.10040        6.49839        1.69031
H          4.71656        7.27290        0.92366
H          4.62308        6.84224        2.66382
H         -2.13180        2.04022       -8.43738
C         -1.07287        0.52812       -9.53488
C         -1.07963        1.83923       -8.73043
C          0.31807        0.15588      -10.05402
H         -1.47116       -0.30060       -8.90993
H         -1.74766        0.64124      -10.41430
H          0.24055       -0.78070      -10.65134
H          0.70156        0.95745      -10.72291
C          1.29341       -0.07328       -8.90682
H         -0.74372        2.66992       -9.38529
H          1.41640        0.85917       -8.31905
H          0.91138       -0.87826       -8.24407
H          2.28256       -0.37238       -9.30905
C          2.06835       -3.54121       -0.67974
C          2.96914       -4.29185        0.05176
C          3.74462       -3.40313        0.74703
C          3.25174       -2.13907        0.43084
N          2.24102       -2.20688       -0.45793
C          3.72187       -0.86062        1.01792
N          2.66329       -0.19698        1.80158
C          2.24446       -0.88423        3.08712
H          3.04551       -5.37814        0.09136
H          1.32883       -3.98319       -1.32644
H          4.54044       -3.64605        1.44138
H          3.99055       -0.21201        0.15653
H          4.64212       -0.99387        1.61531
C          3.45251       -1.16029        3.99068
C          1.25092        0.01474        3.84317
C          1.45728       -2.22864        2.87367
H          4.01244       -0.21794        4.16684
H          3.12493       -1.57892        4.96620
H          4.12893       -1.91369        3.53654
H          0.30709        0.13938        3.27446
H          0.95570       -0.46161        4.80601
H          1.68891        1.00743        4.06125
H          0.54885       -2.09756        2.25128
H          2.04633       -3.05091        2.46084
H          1.11005       -2.63225        3.84946
Na         0.86166       -0.62640        0.67992
Mg         1.27332       -0.41920       -1.17250
C          0.70648        2.03560        0.80501
C          2.01776        2.78387       -0.93610
O          1.32678        1.63098       -0.43405
C         -0.54487        2.88566        0.60105
C          2.96169        2.49483       -2.08072
H          0.38859        1.17649        1.38545
H          1.40578        2.56257        1.50496
H          1.30257        3.56540       -1.28621
H          2.66157        3.22929       -0.14172
H          2.40720        2.42177       -3.03416
H          3.66760        3.35354       -2.17352
H          3.53559        1.57257       -1.87942
H         -1.19983        2.39482       -0.14400
H         -1.09081        2.98531        1.56521
H         -0.28458        3.91078        0.26494
H          1.73579        3.81291       -5.81792
C          1.36362        4.78371       -7.70786
C          1.57922        3.51016       -6.87576
C          0.09800        5.52685       -7.27209
H          2.24235        5.46180       -7.58886
H          1.28433        4.50536       -8.77957
H         -0.77076        4.84453       -7.36983
H          0.19353        5.84458       -6.21003
C         -0.15698        6.76096       -8.13822
H          2.52435        3.03556       -7.21798
H          0.67738        7.48917       -8.04784
H         -0.26877        6.46662       -9.20372
H         -1.09596        7.25647       -7.81100
C         -0.60597       -2.52506       -2.30017
C         -1.29298       -3.03563       -3.38442
C         -0.97733       -2.23431       -4.45163
C         -0.09764       -1.27506       -3.97428
N          0.14225       -1.44314       -2.64155
C          0.46144       -0.18083       -4.84080
N         -0.60251        0.71003       -5.36498
C         -1.35146        1.52632       -4.36941
H         -1.96193       -3.88916       -3.39963
H         -0.66839       -2.93921       -1.30217
H         -1.35723       -2.33640       -5.46131
H          1.23944        0.39104       -4.30303
H          0.96711       -0.67122       -5.69922
C         -0.39081        2.31090       -3.46117
C         -2.21220        2.52887       -5.14927
C         -2.32195        0.68300       -3.50569
H          0.30260        2.91816       -4.07914
H         -0.94318        2.98241       -2.77353
H          0.19540        1.61645       -2.82767
H         -2.93719        1.99501       -5.80051
H         -2.78427        3.17459       -4.44632
H         -1.57860        3.18299       -5.78033
H         -2.97505        0.05602       -4.15040
H         -1.81119        0.03984       -2.77491
H         -2.96398        1.33992       -2.88287
