110
speciation2679.ct
Na         1.02642       -0.64896       -0.79992
Mg         4.47207        1.31443        1.37393
C          3.79043        4.29306       -0.29219
C          4.80188        4.67639        1.76348
O          4.56367        3.64512        0.76897
C          4.44939        5.48119       -1.00889
C          5.43113        4.16294        3.02681
H          3.55638        3.55477       -1.06125
H          2.81315        4.71410        0.05060
H          5.48070        5.47574        1.39138
H          3.86573        5.19733        2.08256
H          6.45138        3.87301        2.80752
H          5.47909        4.97495        3.78526
H          4.87064        3.31065        3.42621
H          5.45286        5.21372       -1.37273
H          3.80707        5.78144       -1.86805
H          4.51072        6.37846       -0.35600
H          5.78595        3.31420       -2.56285
C          7.81082        2.55310       -2.73557
C          6.42060        2.63686       -1.96147
C          7.70578        1.81246       -4.06233
H          8.23582        3.56395       -2.92092
H          8.59067        2.03442       -2.17520
H          7.28727        0.80950       -3.83492
H          7.04572        2.42156       -4.71088
C          9.02393        1.56718       -4.81582
H          6.04525        1.65568       -1.99021
H          9.54332        2.51360       -5.06281
H          9.70562        0.90688       -4.23368
H          8.80930        1.04969       -5.77701
C          2.16243        2.76740        1.40180
C          0.92709        2.50032        1.90229
C          0.62851        1.25020        1.49286
C          1.73492        0.82414        0.79852
N          2.65857        1.79607        0.56673
C          2.12362       -0.53037        0.55620
N          3.31044       -0.46044       -0.23263
C          3.26342       -0.51582       -1.72725
H          0.37172        3.13419        2.56641
H          2.59551        3.64165        1.76544
H         -0.24225        0.68805        1.77290
H          1.60521       -1.51294        0.79444
H          2.53211       -0.65532        1.54144
C          2.55914        0.82547       -2.19861
C          4.72558       -0.81380       -2.25639
C          2.50880       -1.73866       -2.34385
H          2.19649        0.90084       -3.22841
H          3.17993        1.70545       -1.98195
H          1.58697        1.02462       -1.73122
H          4.92667       -1.79675       -2.70525
H          5.37790       -0.05648       -2.61621
H          5.54837       -0.60630       -1.64184
H          2.84302       -2.68371       -1.87446
H          1.41334       -1.72036       -2.39570
H          2.75646       -1.81949       -3.42919
Na         7.05834        2.06411        3.71903
Mg         4.68510        0.95869       -0.98790
C          2.87009        1.74761        4.32894
C          3.53372       -0.46557        3.82258
O          3.48871        0.89207        3.33695
C          3.51761        1.76427        5.73791
C          2.17653       -1.08935        4.24515
H          2.86285        2.79111        3.98247
H          1.79076        1.49708        4.44091
H          3.93043       -1.10967        3.01886
H          4.25104       -0.57472        4.66227
H          1.41547       -1.02322        3.44322
H          2.32404       -2.16428        4.49057
H          1.76190       -0.62063        5.16218
H          4.57529        2.08968        5.69256
H          2.96369        2.48110        6.38693
H          3.45577        0.78401        6.25924
H          3.45643       -0.01510       -4.49909
C          5.26591        0.12971       -5.42814
C          4.29114        0.69712       -4.31446
C          5.84345       -1.29772       -5.18598
H          4.73664        0.10012       -6.40872
H          6.07985        0.81662       -5.61190
H          6.31052       -1.38358       -4.19482
H          5.02582       -2.04611       -5.29085
C          7.00625       -1.67237       -6.11161
H          3.94172        1.68675       -4.67547
H          6.76566       -1.52761       -7.18161
H          7.89993       -1.06819       -5.84657
H          7.28719       -2.73712       -5.94307
C          5.44722       -2.48808       -0.08052
C          6.06613       -3.41929        0.70572
C          6.56410       -2.74088        1.75303
C          6.25668       -1.39649        1.56091
N          5.57917       -1.19425        0.37579
C          6.67477       -0.36865        2.52328
N          6.60724        0.97247        1.93068
C          7.81458        1.29834        1.09236
H          6.14794       -4.48351        0.50831
H          4.95499       -2.84072       -0.96215
H          7.14759       -3.15535        2.56510
H          7.68344       -0.60208        2.87523
H          6.07185       -0.42234        3.42173
C          7.89561        0.37918       -0.12392
C          7.73761        2.76912        0.67839
C          9.18483        1.16606        1.80796
H          6.95912        0.46969       -0.63542
H          8.73755        0.59809       -0.78362
H          8.08091       -0.67658        0.13823
H          7.98965        3.44466        1.51077
H          6.72668        3.01539        0.35909
H          8.47014        3.01150       -0.11402
H          9.23721        1.81832        2.70206
H          9.45258        0.12961        2.08279
H          9.98857        1.48969        1.10615
