80
speciation881.ct
Na         3.57077       -1.66703        1.06139
Mg         4.05498        1.77098       -0.25299
H          3.70603        2.01850       -2.97711
C          3.64359        4.12490       -2.69237
C          3.33843        2.71253       -2.19736
C          3.03406        4.47405       -4.05556
H          3.16503        4.83965       -2.02753
H          4.74369        4.25953       -2.72272
H          3.42636        3.80020       -4.84499
H          1.92481        4.37430       -4.01489
C          3.37772        5.92794       -4.40040
H          2.23661        2.64140       -2.16742
H          2.96497        6.61626       -3.62927
H          4.48008        6.06075       -4.43575
H          2.94945        6.20986       -5.38334
C          3.26660       -4.21472       -2.24264
C          2.56332       -3.79955       -3.34922
C          2.53314       -2.42239       -3.29635
C          3.21111       -2.05384       -2.14219
N          3.66046       -3.15413       -1.50011
C          3.44286       -0.62067       -1.70980
N          2.95947       -0.19730       -0.36870
C          1.45574       -0.29973       -0.15900
H          2.12894       -4.42503       -4.12464
H          3.48260       -5.24493       -1.98924
H          2.06912       -1.76464       -4.02248
H          2.99889        0.03265       -2.47993
H          4.52730       -0.46229       -1.73657
C          0.89549       -1.74468       -0.31882
C          1.13727        0.08331        1.29629
C          0.63183        0.61678       -1.08808
H          1.43995       -2.47090        0.31852
H         -0.17748       -1.78381       -0.01812
H          0.87541       -2.09434       -1.36176
H          1.43895        1.11063        1.51261
H          0.04255        0.01992        1.49823
H          1.65546       -0.58834        2.01086
H          0.84627        1.67963       -0.88572
H          0.79238        0.37374       -2.15872
H         -0.45804        0.48102       -0.89604
Na         6.46658        0.61582       -2.13758
Mg         4.68821       -3.28741        0.14302
H          2.19646        3.04165        1.34164
C          3.50022        4.61857        1.82354
C          3.28985        3.11410        1.48055
C          3.04912        5.51492        0.68120
H          2.92869        4.89033        2.73690
H          4.53822        4.83770        2.05127
H          3.64086        5.19776       -0.16850
H          1.95648        5.37676        0.51715
C          3.35694        7.00128        0.85224
H          3.58167        2.53531        2.38232
H          2.94162        7.40093        1.79788
H          4.45589        7.16715        0.82140
H          2.90906        7.56114       -0.00057
C          7.43463        4.93497        2.48956
C          8.76265        4.71769        2.21816
C          8.82116        3.93313        1.06804
C          7.56358        3.66323        0.66635
N          6.65021        4.28182        1.52583
C          7.14123        2.80708       -0.52615
N          6.33750        1.56711       -0.22317
C          7.07979        0.56699        0.64053
H          9.58669        5.08974        2.81282
H          7.03951        5.50782        3.31983
H          9.73513        3.58018        0.61043
H          8.05745        2.53893       -1.08614
H          6.56732        3.44559       -1.22545
C          7.37813        1.06911        2.08028
C          6.21945       -0.68345        0.81824
C          8.41871        0.08210       -0.00612
H          6.45762        1.45740        2.55495
H          7.77460        0.23778        2.70395
H          8.18587        1.80376        2.13218
H          6.00018       -1.16815       -0.15617
H          6.74911       -1.44424        1.44162
H          5.28357       -0.40444        1.33225
H          8.22732       -0.59112       -0.88836
H          9.10304        0.87399       -0.35649
H          9.01987       -0.52128        0.70890
