95
speciation1827.ct
Na         0.79787        1.86592       -0.42707
Mg         6.05743       -1.20276       -2.99459
C          6.86631       -0.30238       -5.47603
C          8.00438       -2.22759       -4.64838
O          7.42807       -0.96267       -4.34637
C          5.86927       -1.12921       -6.30433
C          9.28781       -2.11735       -5.47632
H          6.31944        0.58398       -5.09263
H          7.66928        0.10024       -6.12856
H          8.28517       -2.70859       -3.68888
H          7.28515       -2.92221       -5.12245
H         10.05146       -1.52642       -4.92845
H          9.69134       -3.13545       -5.66313
H          9.09571       -1.64739       -6.46199
H          5.05863       -1.51144       -5.65772
H          5.42364       -0.49017       -7.09425
H          6.36152       -1.97682       -6.82487
H          2.77516        0.26058       -4.22825
C          1.05177        1.36055       -3.51400
C          2.11270        0.29022       -3.33768
C          1.64940        2.74554       -3.57474
H          0.48950        1.15483       -4.45704
H          0.33271        1.29162       -2.66910
H          2.17090        2.94191       -2.62436
H          2.36244        2.80953       -4.42632
C          0.54910        3.78214       -3.74277
H          1.45797       -0.58553       -3.37141
H          0.00473        3.61517       -4.69722
H         -0.16879        3.70943       -2.89666
H          0.99905        4.79410       -3.74923
C         -2.17964        0.69454       -0.10543
C         -2.60413       -0.61402        0.07318
C         -1.46551       -1.39480        0.11614
C         -0.40371       -0.52342       -0.02184
N         -0.84430        0.73218       -0.15678
C          1.05657       -0.91355       -0.05772
N          2.00776        0.23438        0.01592
C          2.48459        0.56711        1.38673
H         -3.62369       -0.95603        0.14263
H         -2.81783        1.56179       -0.20907
H         -1.41628       -2.46968        0.23555
H          1.17476       -1.41974       -1.03144
H          1.24252       -1.64561        0.74947
C          3.34097       -0.53629        2.00679
C          3.37029        1.78766        1.21770
C          1.34583        0.89849        2.36195
H          4.11869       -0.69915        1.30282
H          3.85435       -0.20913        2.93434
H          2.80127       -1.48054        2.21991
H          2.82368        2.61542        0.71917
H          3.80593        2.13989        2.17446
H          4.19574        1.44872        0.58119
H          0.70744        1.71065        1.96551
H          0.72583        0.00040        2.56304
H          1.77651        1.23141        3.33284
Na         9.06018       -1.05754       -2.06045
Mg         3.42761        0.24112       -1.53877
H          5.38871        1.83407       -2.65555
C          5.96114        2.72751       -0.76805
C          4.88666        2.06760       -1.69160
C          7.14097        1.82465       -0.39051
H          6.37213        3.62234       -1.28277
H          5.48544        3.09883        0.16131
H          6.77248        0.96444        0.14996
H          7.68955        1.50669       -1.30361
C          8.09895        2.48413        0.59791
H          4.16708        2.88307       -1.87380
H          8.52502        3.41778        0.18249
H          7.56481        2.70708        1.54844
H          8.92691        1.77874        0.83354
C          8.78615       -3.59058       -0.52111
C          8.03503       -4.44884        0.27194
C          6.79435       -3.86065        0.39132
C          6.79417       -2.67237       -0.35696
N          8.03774       -2.51810       -0.89706
C          5.56503       -1.70271       -0.40647
N          4.65146       -1.44904       -1.60797
C          4.08758       -2.82910       -2.05421
H          8.36813       -5.37612        0.72011
H          9.81730       -3.75870       -0.77576
H          5.97063       -4.27910        0.96174
H          5.91384       -0.77738       -0.01867
H          4.95644       -2.16833        0.36211
C          3.30199       -3.59610       -0.94568
C          3.13610       -2.71305       -3.24815
C          5.16873       -3.82266       -2.59075
H          2.47214       -3.01250       -0.55006
H          2.86509       -4.53625       -1.34888
H          3.91935       -3.91758       -0.09077
H          3.59161       -2.16400       -4.09371
H          2.83970       -3.71699       -3.63513
H          2.18525       -2.33016       -2.90724
H          5.76793       -3.37937       -3.40324
H          5.82503       -4.26859       -1.84442
H          4.68937       -4.74572       -2.99359
