110
speciation2074.ct
Na         1.00635       -0.09774        0.02014
Mg         4.11209       -2.20717       -0.04797
C         -1.90521       -0.19059        1.30641
C         -1.94891       -0.97889       -0.89143
O         -1.31365       -0.09774        0.02014
C         -1.10874        0.61029        2.32230
C         -3.34719       -0.49407       -1.31043
H         -2.91200        0.27933        1.29163
H         -1.97245       -1.24348        1.66255
H         -1.34966       -0.99411       -1.82018
H         -1.99211       -2.01748       -0.49388
H         -3.28291        0.49813       -1.80545
H         -3.79205       -1.21919       -2.02400
H         -4.04245       -0.42194       -0.44974
H         -1.02410        1.66861        1.99601
H         -1.63704        0.58337        3.30070
H         -0.09892        0.17416        2.44975
H          6.48857       -1.47080       -1.10223
C          7.07019       -3.48336       -0.78234
C          6.31867       -2.21888       -0.31455
C          8.58585       -3.21477       -0.96783
H          6.93109       -4.30868       -0.05268
H          6.64017       -3.79251       -1.75901
H          8.74564       -2.32647       -1.61790
H          9.04767       -3.01025        0.02272
C          9.31670       -4.39028       -1.62731
H          6.77618       -1.84438        0.62296
H          9.18356       -5.32643       -1.04691
H          8.94095       -4.54512       -2.66214
H         10.40593       -4.16944       -1.69301
C          6.68578        2.51361       -1.39976
C          7.00382        1.48362       -2.25686
C          5.89390        0.67298       -2.32161
C          4.95687        1.22021       -1.46764
N          5.43033        2.36806       -0.93403
C          3.57927        0.66595       -1.23086
N          3.37635       -0.09774        0.02014
C          3.67250        0.65696        1.30930
H          7.93956        1.34469       -2.78137
H          7.33545        3.33670       -1.13406
H          5.78843       -0.22736       -2.91270
H          3.36158       -0.03155       -2.04835
H          2.83469        1.48158       -1.33454
C          2.81344        1.93196        1.42463
C          3.25969       -0.21327        2.47752
C          5.18774        0.94880        1.62584
H          1.73557        1.67405        1.44351
H          3.05154        2.47954        2.36459
H          2.95614        2.61017        0.57539
H          3.96253       -1.02571        2.45672
H          3.39736        0.30288        3.45693
H          2.21998       -0.56984        2.40545
H          5.80719        0.03537        1.53524
H          5.70781        1.75030        1.12560
H          5.29462        1.31515        2.67021
Na         4.50588        3.97598        0.54140
Mg         5.26504        7.38795        5.61061
C          2.44787       -4.19730        1.55642
C          4.29426       -3.35099        2.77750
O          3.68946       -3.49898        1.49334
C          1.32300       -3.48538        2.31132
C          4.64220       -4.64231        3.51321
H          2.11152       -4.36343        0.53745
H          2.58508       -5.23295        1.93305
H          5.25470       -2.81499        2.62427
H          3.65316       -2.76810        3.46870
H          5.31261       -5.27849        2.90481
H          5.15700       -4.36488        4.45955
H          3.72838       -5.19953        3.80506
H          1.14014       -2.48485        1.87736
H          0.38935       -4.08131        2.21695
H          1.54607       -3.40593        3.39459
H          3.81286       -2.68372       -2.68980
C          1.91483       -3.60374       -2.16911
C          3.38348       -3.24854       -1.84073
C          1.00585       -2.38797       -2.28574
H          1.86183       -4.19212       -3.11023
H          1.48583       -4.25817       -1.39503
H         -0.04047       -2.74870       -2.38517
H          1.08404       -1.79367       -1.35699
C          1.31408       -1.53755       -3.51488
H          3.93204       -4.21210       -1.76614
H          2.35523       -1.17962       -3.51827
H          1.16246       -2.13804       -4.43473
H          0.63789       -0.65797       -3.53725
C          2.27358        5.86377        2.15113
C          2.08642        6.85520        3.09517
C          3.34499        7.19812        3.56044
C          4.22968        6.39375        2.87112
N          3.58143        5.58390        2.01683
C          5.72881        6.41047        3.02704
N          6.07746        6.07840        4.41435
C          7.52740        6.04622        4.72370
H          1.13700        7.27955        3.41872
H          1.48543        5.37453        1.58561
H          3.56886        7.94114        4.31023
H          6.14804        5.66706        2.32481
H          6.07684        7.42667        2.75958
C          8.19150        7.40971        4.47401
C          7.66150        5.70621        6.22145
C          8.25020        4.94642        3.91504
H          7.67400        8.20471        5.05652
H          9.25997        7.38813        4.78524
H          8.17442        7.68769        3.40170
H          7.19423        4.72473        6.44002
H          8.72935        5.66477        6.52051
H          7.15512        6.48226        6.83864
H          7.77861        3.96147        4.08656
H          8.23851        5.16547        2.82765
H          9.32096        4.88505        4.21712
