80
speciation863.ct
Na         3.75661        0.26369        2.81727
Mg         1.93805        4.51071       -0.72074
H          2.91159        6.80302        0.37270
C          4.74620        6.11605       -0.57810
C          3.40121        5.84238        0.11585
C          4.59019        6.87213       -1.89388
H          5.38780        6.70999        0.10797
H          5.27257        5.16256       -0.78376
H          3.96135        6.27224       -2.58391
H          4.08959        7.84681       -1.71944
C          5.96382        7.12652       -2.52372
H          3.63070        5.31767        1.06837
H          6.57608        7.78710       -1.87557
H          6.52232        6.17642       -2.64796
H          5.84279        7.60780       -3.51713
C          5.45042       -0.66476        0.44024
C          5.87921       -0.39783       -0.83718
C          5.29339        0.78893       -1.19812
C          4.53214        1.20985       -0.13316
N          4.62722        0.31807        0.87125
C          3.72216        2.49921       -0.06339
N          2.75122        2.73267       -1.17002
C          1.62517        1.75732       -1.23436
H          6.54449       -1.00313       -1.43953
H          5.72719       -1.53196        1.02641
H          5.41049        1.26966       -2.13582
H          3.23355        2.60098        0.92549
H          4.47632        3.29532       -0.11587
C          0.78373        1.80448        0.05203
C          0.76944        2.16084       -2.43207
C          2.06872        0.29253       -1.48654
H          0.48758        2.84397        0.25673
H         -0.12275        1.16954       -0.03576
H          1.35978        1.42991        0.92440
H          1.39384        2.10136       -3.33667
H         -0.10936        1.49034       -2.55109
H          0.41847        3.19826       -2.34654
H          2.74970        0.22646       -2.36189
H          2.54762       -0.16590       -0.60266
H          1.18711       -0.35366       -1.68576
Na         5.74858        0.09338       -4.32666
Mg         3.85117        2.40387       -2.79547
H          0.04037        6.50956       -0.77614
C         -1.34927        4.85069       -0.62805
C         -0.01577        5.45811       -1.12321
C         -1.48920        4.88523        0.90253
H         -2.19062        5.43714       -1.06410
H         -1.44646        3.80502       -0.99219
H         -0.67212        4.30975        1.37510
H         -1.42763        5.93474        1.26057
C         -2.82516        4.29198        1.36072
H         -0.05243        5.48150       -2.23399
H         -3.67699        4.88800        0.96731
H         -2.93003        3.24078        1.01534
H         -2.87747        4.30037        2.47125
C          1.63607       -0.60155       -5.85966
C          0.80487        0.49444       -5.91665
C          1.60340        1.61425       -5.78519
C          2.87480        1.21930       -5.64518
N          2.96812       -0.18845       -5.67327
C          4.04890        2.16690       -5.60159
N          4.95113        2.07507       -4.42092
C          6.12316        3.00610       -4.55206
H         -0.26865        0.47099       -6.06606
H          1.31135       -1.62962       -5.96456
H          1.26051        2.64127       -5.83408
H          3.62126        3.18910       -5.67600
H          4.59246        1.93390       -6.52545
C          5.66754        4.47360       -4.64201
C          7.03048        2.87165       -3.31506
C          7.00332        2.67843       -5.78827
H          5.03424        4.70323       -3.76548
H          6.54766        5.14968       -4.66726
H          5.09765        4.69783       -5.56384
H          7.39967        1.82797       -3.21322
H          7.92079        3.53278       -3.40491
H          6.49509        3.17410       -2.39138
H          7.37479        1.63314       -5.74238
H          6.47842        2.83398       -6.75073
H          7.88280        3.35823       -5.82543
