110
speciation2296.ct
Na         0.63605        1.89483       -0.31585
Mg         3.24510       -0.42520       -1.81475
C         -0.08437        4.63562        0.38269
C          2.26666        4.52759       -0.09483
O          1.08291        3.83288        0.26506
C         -0.38715        5.53438       -0.81788
C          2.78278        5.40864        1.05006
H         -0.93853        3.93291        0.48541
H         -0.06961        5.21956        1.32829
H          3.05653        3.78161       -0.31565
H          2.14399        5.10075       -1.03545
H          3.03512        4.79074        1.93758
H          3.69798        5.94544        0.72022
H          2.03334        6.17161        1.34362
H         -0.40497        4.93205       -1.74939
H         -1.37758        6.01428       -0.67396
H          0.35891        6.35095       -0.90246
H          1.19288       -0.87782       -3.49431
C          2.67552       -0.38886       -4.94194
C          2.04372       -0.17934       -3.57434
C          1.66966       -0.18424       -6.08145
H          3.52661        0.30224       -5.07140
H          3.02936       -1.43019       -4.99516
H          0.80936       -0.87775       -5.95192
H          1.28686        0.85998       -6.08127
C          2.33640       -0.47953       -7.42288
H          1.65192        0.86104       -3.49905
H          3.18025        0.22255       -7.59305
H          2.72515       -1.52111       -7.43386
H          1.60180       -0.36760       -8.24672
C         -2.46188        1.16265       -0.01820
C         -3.19130       -0.00006       -0.06434
C         -2.28616       -1.02141       -0.29703
C         -1.05578       -0.41952       -0.39695
N         -1.15434        0.89172       -0.20660
C          0.28030       -1.08085       -0.61422
N          1.43923       -0.16505       -0.33888
C          1.79244       -0.07826        1.11182
H         -4.25844       -0.08878        0.08015
H         -2.84075        2.15621        0.14954
H         -2.52649       -2.07695       -0.38755
H          0.28759       -1.47372       -1.64474
H          0.29564       -2.00692        0.00505
C          2.01500       -1.47313        1.73978
C          3.01312        0.84191        1.11491
C          0.72620        0.53219        2.06385
H          2.16326       -2.17172        0.93124
H          2.78586       -1.45863        2.54079
H          1.11040       -1.94583        2.18201
H          2.69287        1.85934        0.81911
H          3.47369        0.90643        2.11267
H          3.76382        0.53736        0.35755
H          0.36547        1.53528        1.78492
H         -0.15892       -0.13668        2.19117
H          1.17405        0.63084        3.08057
Na         2.91107       -5.73795       -1.68476
Mg         2.90552       -3.58404       -1.75813
C          0.95278       -5.43710        0.57174
C          0.60029       -7.56885       -0.41304
O          0.88575       -6.18625       -0.64576
C          1.77173       -6.06535        1.72187
C         -0.78516       -7.83051        0.23294
H          1.42749       -4.46630        0.32985
H         -0.06759       -5.17585        0.92210
H          0.62301       -8.12606       -1.37248
H          1.39957       -8.03206        0.19706
H         -1.59847       -7.78472       -0.52121
H         -0.79234       -8.84440        0.68814
H         -1.03747       -7.13223        1.05646
H          2.80543       -6.28999        1.38504
H          1.81573       -5.36392        2.57983
H          1.29962       -6.99457        2.11043
H          4.29223        2.33661       -2.05851
C          5.55667        1.56977       -3.61943
C          4.81739        1.37877       -2.22666
C          6.79075        2.54277       -3.73897
H          5.85420        0.58970       -4.04358
H          4.81470        1.98867       -4.34100
H          7.27999        2.35226       -4.72951
H          6.46007        3.60099       -3.75164
C          7.89532        2.44642       -2.67593
H          5.58896        1.27316       -1.43965
H          7.50701        2.78534       -1.69291
H          8.32263        1.42679       -2.58887
H          8.72765        3.13944       -2.94546
C          5.83213       -6.28080       -3.04936
C          6.98946       -5.78324       -3.61290
C          6.84743       -4.41799       -3.66990
C          5.60273       -4.12458       -3.14486
N          4.98003       -5.27999       -2.74615
C          5.11126       -2.68718       -2.97503
N          4.43971       -2.39569       -1.68734
C          5.33198       -2.69051       -0.48115
H          7.85432       -6.34903       -3.93352
H          5.63495       -7.32454       -2.84860
H          7.57781       -3.71074       -4.04164
H          4.39925       -2.49799       -3.78602
H          5.95343       -1.97794       -3.14153
C          6.51244       -1.70496       -0.36461
C          4.50415       -2.54182        0.72712
C          5.87158       -4.14799       -0.32454
H          6.14802       -0.65866       -0.35050
H          7.05593       -1.88319        0.59424
H          7.23917       -1.83445       -1.19040
H          3.72147       -3.33079        0.64776
H          5.03905       -2.71154        1.68179
H          4.17761       -1.50350        0.70233
H          5.03898       -4.88350       -0.39071
H          6.70374       -4.39532       -1.00118
H          6.31547       -4.31143        0.68143
