110
speciation2246.ct
Na         0.90112        0.01478       -0.00230
Mg         4.13378        0.55249        1.85018
C         -1.94200        0.98682        0.88792
C         -1.98243       -1.26813        0.19594
O         -1.41888        0.01478       -0.00230
C         -1.71182        0.68960        2.37637
C         -1.33428       -2.26421       -0.75540
H         -1.42267        1.94057        0.65655
H         -3.02027        1.16548        0.68220
H         -1.80524       -1.65464        1.22049
H         -3.07158       -1.23958       -0.03033
H         -0.25121       -2.36130       -0.52618
H         -1.81213       -3.26003       -0.63154
H         -1.45881       -1.93422       -1.80765
H         -0.63773        0.48738        2.56986
H         -2.02849        1.56705        2.97834
H         -2.32403       -0.16999        2.71895
H          5.56401       -1.74900        1.50150
C          6.63892       -1.14986        3.19421
C          5.89268       -0.78287        1.91946
C          5.71435       -1.85184        4.19273
H          7.47137       -1.84051        2.92782
H          7.09019       -0.23765        3.63371
H          4.86479       -1.19302        4.45351
H          5.29914       -2.77921        3.74100
C          6.47333       -2.21129        5.46477
H          6.64159       -0.35721        1.22350
H          7.29627       -2.92058        5.23230
H          6.90062       -1.29637        5.92883
H          5.78113       -2.68889        6.18849
C          2.48050       -4.05003        1.92658
C          1.75936       -2.99944        2.46671
C          2.08579       -1.88827        1.74151
C          2.97368       -2.30850        0.76652
N          3.26383       -3.63264        0.89111
C          3.54559       -1.41853       -0.28671
N          3.27112        0.01478       -0.00230
C          3.82476        0.92712       -1.04823
H          1.06972       -3.01956        3.30366
H          2.44293       -5.06391        2.29846
H          1.70309       -0.88794        1.90341
H          3.07473       -1.74307       -1.23436
H          4.62302       -1.61689       -0.36741
C          3.15403        0.67899       -2.41667
C          3.54092        2.37059       -0.61494
C          5.36407        0.80426       -1.20898
H          2.05157        0.76452       -2.32596
H          3.51082        1.42127       -3.16287
H          3.41058       -0.31894       -2.82489
H          4.08612        2.59587        0.32620
H          3.89928        3.09099       -1.38416
H          2.45564        2.53168       -0.45271
H          5.87651        1.05439       -0.26053
H          5.68767       -0.19714       -1.55084
H          5.73365        1.52153       -1.97325
Na         4.77512       -5.01826       -0.24106
Mg         5.69599       -7.96440       -2.02178
C          4.63655        1.73635        4.45285
C          3.13527        3.02308        3.14933
O          4.22177        2.09779        3.13283
C          3.52946        1.18400        5.37016
C          3.51054        4.39885        3.74728
H          5.40757        0.96606        4.35374
H          5.17581        2.56865        4.95147
H          2.81409        3.21236        2.10875
H          2.24470        2.60434        3.65716
H          4.29462        4.89565        3.13564
H          2.61373        5.05258        3.76866
H          3.86855        4.32878        4.79572
H          2.99596        0.34928        4.87150
H          3.97623        0.81533        6.31803
H          2.80277        1.97325        5.65658
H          4.58072      -10.39010       -1.92913
C          3.23962       -9.03628       -0.86879
C          4.62991       -9.54102       -1.21548
C          2.49804       -8.57942       -2.12530
H          2.67142       -9.85397       -0.37524
H          3.33895       -8.18551       -0.15917
H          3.06454       -7.76191       -2.62319
H          2.40616       -9.43296       -2.83246
C          1.10054       -8.08043       -1.77191
H          5.11986       -9.91153       -0.29201
H          0.51645       -8.89044       -1.28423
H          1.16524       -7.21236       -1.08164
H          0.57052       -7.76614       -2.69498
C          5.97015       -7.93641       -5.09651
C          6.59047       -7.00660       -5.91680
C          7.08008       -6.01685       -5.08567
C          6.73164       -6.38275       -3.79933
N          6.06344       -7.53399       -3.81513
C          7.06464       -5.63649       -2.52661
N          6.44920       -6.27563       -1.31968
C          7.44730       -6.74091       -0.31322
H          6.68719       -7.06568       -6.99276
H          5.49430       -8.85429       -5.42164
H          7.63805       -5.14144       -5.39753
H          6.71592       -4.58671       -2.59623
H          8.17282       -5.62003       -2.50095
C          8.34925       -5.59039        0.19714
C          6.67441       -7.28784        0.89216
C          8.33144       -7.88462       -0.87937
H          7.73539       -4.77753        0.63538
H          9.04459       -5.97139        0.97830
H          8.99128       -5.15742       -0.59353
H          6.04926       -8.14550        0.59971
H          7.37074       -7.63459        1.68815
H          6.01131       -6.50742        1.31794
H          7.70543       -8.73228       -1.23638
H          8.97363       -7.55528       -1.72127
H          9.01150       -8.27755       -0.09139
