80
speciation936.ct
Na         1.26603       -0.44084        0.85006
Mg        -0.04390       -3.44372       -3.11625
H         -1.24995       -5.54224       -4.71185
C         -2.64575       -4.30522       -5.78430
C         -1.74902       -4.57174       -4.50965
C         -1.86648       -4.16285       -7.10908
H         -3.35149       -5.16399       -5.92409
H         -3.27491       -3.40194       -5.62433
H         -1.15413       -3.33619       -7.00326
H         -1.29867       -5.09377       -7.32051
C         -2.75932       -3.86229       -8.33151
H         -2.49099       -4.76771       -3.70672
H         -3.43906       -4.70831       -8.57123
H         -3.36787       -2.94600       -8.17815
H         -2.11642       -3.68881       -9.22608
C          1.67935       -4.83146       -0.87165
C          2.72732       -4.77349        0.03132
C          3.25487       -3.51607       -0.06387
C          2.51256       -2.84814       -1.01347
N          1.50300       -3.65003       -1.52561
C          2.86764       -1.43124       -1.44579
N          3.06698       -0.46577       -0.31843
C          3.28782        0.94615       -0.75646
H          3.11228       -5.55770        0.67649
H          1.08688       -5.72444       -1.03977
H          4.10457       -3.12527        0.49205
H          2.06439       -1.11637       -2.12261
H          3.81920       -1.52926       -1.99380
C          2.06832        1.51325       -1.50588
C          3.49750        1.85256        0.47377
C          4.56450        1.03883       -1.61098
H          1.16930        1.48501       -0.85014
H          2.25709        2.57233       -1.78664
H          1.85661        0.96947       -2.44000
H          4.38619        1.56474        1.04682
H          3.67915        2.90907        0.16752
H          2.62692        1.84791        1.16850
H          5.42558        0.61595       -1.04913
H          4.46169        0.48139       -2.56024
H          4.79778        2.09264       -1.86384
Na         7.66837        1.48876       -0.10468
Mg         4.68935       -0.43234        0.90929
H         -1.80478       -1.78608       -2.27499
C         -1.46091       -0.56995       -4.01907
C         -0.94769       -1.52875       -2.93138
C         -0.35889        0.04095       -4.89969
H         -2.23044       -1.06829       -4.64542
H         -1.94787        0.28093       -3.49223
H         -0.81863        0.81523       -5.55399
H          0.40168        0.54226       -4.26616
C          0.31503       -0.98032       -5.80007
H         -0.21369       -0.97470       -2.31389
H          0.79010       -1.78433       -5.20111
H         -0.44233       -1.40138       -6.48304
H          1.08886       -0.48105       -6.42060
C          3.53893       -0.72423        3.67780
C          3.86641       -0.10940        4.87033
C          5.00297        0.65156        4.63125
C          5.32881        0.43442        3.30904
N          4.41518       -0.34757        2.73935
C          6.48644        0.96288        2.50766
N          6.64605        0.16961        1.24934
C          7.57321       -0.99518        1.31898
H          3.31769       -0.18990        5.79832
H          2.68721       -1.36480        3.48765
H          5.52304        1.27895        5.34199
H          7.39680        0.98577        3.12677
H          6.27722        2.02711        2.26538
C          7.00178       -2.08889        2.23349
C          7.71149       -1.55999       -0.10614
C          9.00767       -0.60597        1.78474
H          6.00417       -2.40023        1.86198
H          7.66625       -2.98049        2.24182
H          6.90618       -1.72536        3.27569
H          8.15806       -0.80305       -0.78663
H          8.37867       -2.45171       -0.11219
H          6.72243       -1.85304       -0.51504
H          9.46265        0.14563        1.10311
H          9.05991       -0.21750        2.81878
H          9.66408       -1.50351        1.78104
