110
speciation2438.ct
Na         1.03406        0.08848       -0.03181
Mg         3.03816        4.97239        1.14061
C         -1.86927        0.68200       -1.19028
C         -1.94561        0.66468        1.11430
O         -1.28594        0.08848       -0.03181
C         -1.39837        0.03747       -2.46654
C         -3.46347        0.42476        1.28545
H         -2.96028        0.49534       -1.22991
H         -1.66740        1.77721       -1.22867
H         -1.54162        0.20211        2.03430
H         -1.79491        1.76488        1.12145
H         -3.69754       -0.65361        1.39306
H         -3.78591        0.94158        2.21779
H         -4.08857        0.87326        0.48812
H         -1.58932       -1.05421       -2.45953
H         -1.93807        0.49825       -3.32603
H         -0.33428        0.22347       -2.56243
H          3.07835        7.54227        1.92441
C          2.63217        6.60939        3.82799
C          2.47369        6.69301        2.30167
C          4.08656        6.32302        4.19961
H          2.31573        7.57825        4.27773
H          1.98322        5.81235        4.24946
H          4.37974        5.34232        3.77188
H          4.74075        7.11556        3.77593
C          4.28323        6.28496        5.71403
H          1.40695        6.90282        2.07369
H          4.01687        7.26595        6.16357
H          3.65766        5.48492        6.16262
H          5.34812        6.07530        5.94700
C          0.87765        3.70236        2.39417
C          0.15852        2.56729        2.59195
C          0.82518        1.58606        1.88728
C          1.94375        2.13394        1.28651
N          1.93489        3.46176        1.59542
C          3.04865        1.51944        0.34804
N          3.40406        0.08848       -0.03181
C          3.48944       -0.97201        1.11095
H         -0.74761        2.45401        3.16238
H          0.59505        4.67173        2.78624
H          0.46817        0.60414        1.86108
H          3.90949        2.10616        0.48899
H          2.82004        1.97667       -0.60128
C          2.20368       -1.13605        1.95317
C          3.71102       -2.34921        0.51037
C          4.59389       -0.80483        2.18582
H          1.30488       -1.39604        1.36473
H          2.28328       -1.97016        2.68246
H          2.11013       -0.28635        2.64111
H          4.77191       -2.40471        0.22085
H          3.60318       -3.16007        1.26195
H          2.97499       -2.54356       -0.29812
H          5.60978       -0.76815        1.74266
H          4.37478        0.04048        2.87411
H          4.59354       -1.68065        2.87473
Na         5.16799        3.64296       -3.27300
Mg         4.71052        0.89543       -1.30894
C          6.12307        1.98381        1.36944
C          7.18517        2.62213       -0.65766
O          6.20778        1.78178       -0.08760
C          5.74189        3.38066        1.89546
C          8.59014        2.33338       -0.11610
H          5.32698        1.38794        1.71277
H          6.98456        1.55206        1.88606
H          7.18048        2.47283       -1.75212
H          6.91964        3.69337       -0.48965
H          8.86125        1.28339       -0.34255
H          9.31522        3.03092       -0.57405
H          8.65888        2.49544        0.97890
H          4.76691        3.73689        1.53662
H          5.60224        3.30957        2.99671
H          6.51548        4.14186        1.69564
H          5.22412        5.49396       -0.17419
C          3.93467        5.62024       -1.89244
C          4.32275        5.00231       -0.55787
C          3.43691        7.03825       -1.80997
H          4.79540        5.58492       -2.58694
H          3.12877        5.05354       -2.32262
H          3.11831        7.34008       -2.83380
H          2.55866        7.09692       -1.13400
C          4.55569        7.95554       -1.35439
H          4.56810        3.93752       -0.75748
H          4.85712        7.70951       -0.31735
H          5.43220        7.83514       -2.03142
H          4.20561        9.00443       -1.39205
C          4.50162       -1.97367       -2.44435
C          3.68462       -2.29087       -3.49518
C          3.43467       -1.13042       -4.21771
C          4.10483       -0.14271       -3.53676
N          4.59941       -0.62943       -2.41154
C          4.32258        1.29577       -3.85169
N          3.70679        2.17255       -2.84362
C          2.33347        2.58352       -3.39230
H          3.24280       -3.26075       -3.69648
H          4.78879       -2.69403       -1.71629
H          2.80230       -1.02982       -5.09624
H          4.11036        1.56731       -4.90458
H          5.42613        1.44242       -3.78435
C          1.53647        1.44262       -4.06586
C          1.36924        3.09503       -2.27364
C          2.47972        3.66759       -4.53546
H          1.50431        0.59181       -3.37144
H          0.50928        1.77311       -4.34189
H          1.98893        1.10734       -5.01636
H          1.75805        3.83146       -1.55937
H          0.44945        3.53583       -2.72253
H          1.01094        2.24936       -1.65531
H          3.09603        4.54442       -4.29569
H          2.94533        3.25433       -5.44979
H          1.47845        4.03950       -4.85426
