81
speciation737.ct
Na         1.00906        0.09347        0.03436
Mg        -2.02426       -1.34942       -1.16487
C         -2.92416       -3.98271       -1.68134
C         -1.95090       -2.99618       -3.52766
O         -2.67092       -2.75606       -2.33397
C         -3.72568       -3.73296       -0.41543
C         -1.62887       -1.68987       -4.22991
H         -3.55653       -4.63018       -2.33290
H         -1.98041       -4.51004       -1.41589
H         -0.99668       -3.53664       -3.33631
H         -2.58865       -3.58045       -4.22940
H         -0.89234       -1.12691       -3.62952
H         -1.16895       -1.89750       -5.21924
H         -2.55501       -1.09371       -4.38272
H         -4.66318       -3.18698       -0.65415
H         -3.98666       -4.70333        0.05891
H         -3.12441       -3.13418        0.29408
H         -6.95184       -1.84678        2.45578
C         -6.71895       -0.24512        3.91561
C         -6.39970       -1.64188        3.39693
C         -6.02703        0.03683        5.25724
H         -6.41785        0.51376        3.16270
H         -7.81829       -0.17346        4.06727
H         -6.34862        1.03792        5.61585
H         -6.34520       -0.71776        6.01059
C         -4.50285        0.03074        5.14732
H         -6.70359       -2.39291        4.15712
H         -4.13228       -0.96897        4.84595
H         -4.16884        0.78832        4.40695
H         -4.05876        0.27324        6.13503
C         -1.80381       -3.22894        3.20191
C         -0.46833       -3.11758        2.91251
C         -0.30960       -1.95179        2.18381
C         -1.56584       -1.40165        2.04969
N         -2.47271       -2.19306        2.67872
C         -1.89383       -0.07690        1.41697
N         -1.36094        0.09347        0.03436
C         -1.72942        1.39290       -0.59353
H          0.28887       -3.80860        3.23619
H         -2.26518       -4.00950        3.79394
H          0.61422       -1.53265        1.81719
H         -1.45091        0.69773        2.07536
H         -2.99628        0.02222        1.43672
C         -1.16531        2.59786        0.19422
C         -1.11132        1.42482       -1.99550
C         -3.26139        1.54022       -0.74342
H         -0.06340        2.51190        0.30662
H         -1.38989        3.54721       -0.33972
H         -1.62377        2.68899        1.19940
H         -1.54835        0.62185       -2.60758
H         -1.32575        2.38862       -2.50679
H         -0.01089        1.29171       -1.94561
H         -3.68697        0.65278       -1.25966
H         -3.76386        1.65913        0.23763
H         -3.51112        2.44633       -1.33682
Mg        -4.41184       -1.92089        3.03337
C          2.69397       -1.74164        3.83985
C          2.76399       -3.03532        3.37305
C          3.18261       -2.97859        2.05839
C          3.36784       -1.69846        1.73508
N          3.08716       -0.84850        2.82720
C          3.89625       -1.23737        0.40736
N          3.37906        0.09347        0.03436
C          3.96333        0.65981       -1.20154
H          2.52348       -3.92766        3.93688
H          2.38355       -1.45217        4.83511
H          3.34930       -3.82684        1.40670
H          3.62851       -1.99411       -0.35845
H          4.99532       -1.21651        0.52436
C          3.67401       -0.22180       -2.43731
C          3.32861        2.04021       -1.42623
C          5.49651        0.86452       -1.06529
H          2.58088       -0.36907       -2.56006
H          4.07256        0.25864       -3.35828
H          4.16571       -1.21174       -2.35688
H          3.52785        2.70769       -0.56158
H          3.73649        2.52293       -2.34171
H          2.22888        1.94540       -1.54459
H          5.72773        1.48883       -0.17630
H          6.04240       -0.09825       -0.97862
H          5.90682        1.36997       -1.96526
