96
speciation1031.ct
Na         0.55881        1.27953       -0.42094
Mg        -5.81573        1.48591        2.62748
C          2.10257        1.58221       -3.33440
C          0.14395        2.89119       -3.23601
O          0.83682        1.76270       -2.67968
C          3.01804        2.81883       -3.46020
C         -0.33477        2.66598       -4.68747
H          2.67033        0.83428       -2.78252
H          1.95773        1.12201       -4.33733
H         -0.75157        3.11636       -2.62800
H          0.73606        3.82203       -3.16672
H         -1.06904        1.83604       -4.74418
H         -0.82130        3.59051       -5.06586
H          0.50250        2.44470       -5.38152
H          3.18007        3.29072       -2.47424
H          3.99966        2.51403       -3.88105
H          2.61055        3.57524       -4.16258
H         -8.18987        2.52310        3.21078
C         -7.75467        3.43078        1.28948
C         -7.31607        2.94476        2.66671
C         -8.33580        2.28752        0.45341
H         -8.52387        4.22179        1.42013
H         -6.87424        3.86755        0.77054
H         -7.56757        1.49550        0.31957
H         -9.21568        1.85052        0.97516
C         -8.78226        2.78759       -0.91918
H         -6.92262        3.80104        3.25204
H         -9.57194        3.56231       -0.81134
H         -7.92149        3.22048       -1.47186
H         -9.19527        1.94228       -1.50882
C         -4.97473       -1.17890        2.91731
C         -3.99815       -2.13930        2.81392
C         -2.88498       -1.50398        2.31924
C         -3.22459       -0.16324        2.11883
N         -4.51911        0.01401        2.50739
C         -2.33965        0.95379        1.53939
N         -1.76390        0.73380        0.15510
C         -2.75902        0.51559       -0.93601
H         -4.08600       -3.18737        3.06121
H         -5.98597       -1.35889        3.26784
H         -1.97154       -2.03238        2.12837
H         -1.54483        1.17927        2.26181
H         -2.93095        1.88989        1.54674
C         -3.64303        1.77175       -1.09970
C         -2.00079        0.25808       -2.23185
C         -3.65144       -0.73291       -0.74591
H         -3.00928        2.66753       -1.28071
H         -4.34695        1.65358       -1.94888
H         -4.25781        1.95866       -0.19456
H         -1.31610       -0.61100       -2.13502
H         -2.69613        0.08601       -3.08177
H         -1.41983        1.12891       -2.47124
H         -3.02773       -1.64281       -0.60682
H         -4.37992       -0.63821        0.06913
H         -4.29412       -0.88132       -1.63898
Mg        -0.11519       -0.32445       -0.12728
C          0.15559        3.93176        0.86164
C          2.48048        3.64223        0.64054
O          1.20751        3.00559        0.62896
C          0.04554        5.08400       -0.14832
C          3.61558        2.65842        0.41020
H         -0.79236        3.36007        0.80872
H          0.21596        4.32781        1.89883
H          2.57393        4.40059       -0.16372
H          2.65429        4.10827        1.63808
H          3.52610        2.17503       -0.57908
H          4.58554        3.19935        0.46545
H          3.62826        1.88085        1.17966
H         -0.02651        4.69499       -1.17539
H         -0.86890        5.67518        0.06619
H          0.90367        5.78282       -0.08095
C          4.57924       -4.27169        0.04951
C          3.45403       -4.60497       -0.67045
C          2.75925       -3.43000       -0.92681
C          3.43410       -2.41497       -0.37503
N          4.61842       -2.88080        0.24415
C          3.02492       -0.95513       -0.36674
N          1.75952       -0.65275        0.35465
C          1.71864       -1.01717        1.81218
H          3.17229       -5.61029       -0.95860
H          5.32146       -4.96794        0.41996
H          1.82322       -3.35524       -1.46280
H          2.93102       -0.65876       -1.41270
H          3.84883       -0.36016        0.07552
C          2.83776       -0.37681        2.65927
C          0.42324       -0.47840        2.36018
C          1.69245       -2.54885        2.04233
H          2.73265        0.72428        2.67295
H          2.73910       -0.69637        3.72010
H          3.84951       -0.65971        2.31387
H         -0.37334       -0.85907        1.72346
H          0.23453       -0.79230        3.41067
H          0.45163        0.62546        2.30586
H          0.90174       -3.02722        1.42494
H          2.66069       -3.03293        1.85224
H          1.48965       -2.78121        3.10944
