96
speciation1354.ct
Na         1.08201        0.04309        0.03765
Mg         4.40537       -1.35264       -1.25402
C         -1.78018       -1.22940       -0.28483
C         -1.81281        1.07996       -0.73668
O         -1.23799        0.04309        0.03765
C         -1.53439       -1.68516       -1.72671
C         -1.22347        2.42260       -0.32838
H         -1.28664       -1.96742        0.37913
H         -2.86431       -1.26944       -0.04395
H         -1.60430        0.95814       -1.81974
H         -2.90972        1.12537       -0.55238
H         -0.13596        2.44771       -0.55434
H         -1.72258        3.23343       -0.90254
H         -1.37937        2.60330        0.75537
H         -0.45843       -1.65089       -1.93518
H         -1.87437       -2.73278       -1.85715
H         -2.08404       -1.06521       -2.46451
H          3.13923       -2.85518       -3.16122
C          1.86457       -1.12608       -3.07378
C          2.78445       -2.14347       -2.40064
C          2.58602       -0.19864       -4.04992
H          1.06702       -1.67511       -3.62459
H          1.40710       -0.50222       -2.27971
H          3.37868        0.35323       -3.51328
H          3.06597       -0.77748       -4.86605
C          1.59514        0.80319       -4.65037
H          2.17678       -2.74869       -1.69669
H          0.85025        0.27542       -5.28446
H          1.05294        1.35226       -3.84851
H          2.13654        1.54252       -5.27568
C          6.96816        0.77155       -0.63985
C          6.96606        2.16887       -0.84750
C          5.64571        2.57142       -0.81584
C          4.96472        1.39805       -0.66040
N          5.72435        0.28221       -0.45233
C          3.54857        1.31352       -0.58739
N          3.45201        0.04309        0.03765
C          3.60585        0.21961        1.59236
H          7.79159        2.86849       -0.95703
H          7.89415        0.22995       -0.60245
H          5.25226        3.57809       -0.86658
H          3.16277        1.30435       -1.60079
H          3.04217        2.13469       -0.05097
C          2.52979        1.16750        2.22182
C          3.30267       -1.04145        2.26342
C          5.00854        0.60401        2.18895
H          1.50235        0.83342        1.97131
H          2.57391        1.13306        3.33688
H          2.66682        2.22591        1.97667
H          4.16156       -1.75159        2.20841
H          3.19145       -0.92201        3.35962
H          2.32253       -1.32961        1.83628
H          5.81087       -0.10715        1.89359
H          5.29998        1.64598        1.97397
H          5.00251        0.51667        3.30531
Mg         4.33460       -1.95460        0.45528
C          2.76385       -3.64092        3.35421
C          1.42925       -4.02708        1.43870
O          2.68879       -3.43207        1.89223
C          3.29978       -4.99023        3.82131
C          0.08322       -3.87539        2.28438
H          3.38118       -2.91397        3.89623
H          1.80997       -3.42781        3.88850
H          1.17513       -3.60211        0.45542
H          1.56888       -5.12603        1.32652
H         -0.23309       -2.81953        2.43131
H         -0.75881       -4.39391        1.76889
H          0.07467       -4.37594        3.28442
H          2.79982       -5.84130        3.32282
H          3.13573       -5.09786        4.92293
H          4.39264       -5.00829        3.64922
C          5.00501       -4.93310        0.81117
C          6.15012       -5.68101        0.70077
C          7.12023       -4.83780        0.23392
C          6.50220       -3.61349        0.06150
N          5.23636       -3.65152        0.46406
C          7.06544       -2.39755       -0.55210
N          6.32881       -2.05029       -1.80496
C          6.71401       -2.85699       -3.01739
H          6.26816       -6.72925        0.91734
H          4.05914       -5.30627        1.18127
H          8.14571       -5.06955       -0.00378
H          8.15152       -2.48213       -0.70855
H          6.94744       -1.61752        0.22156
C          6.42778       -4.36260       -2.84195
C          5.93441       -2.41295       -4.27361
C          8.21608       -2.64488       -3.36325
H          5.39985       -4.50863       -2.44317
H          6.51455       -4.91849       -3.79788
H          7.17050       -4.83761       -2.18768
H          5.99976       -1.32112       -4.44970
H          4.88485       -2.72576       -4.24744
H          6.34867       -2.92812       -5.17358
H          8.41856       -1.57037       -3.55889
H          8.90412       -2.99632       -2.57188
H          8.49991       -3.22721       -4.26594
