83
speciation288.ct
Na         1.19110        1.84051        0.32409
Mg         3.38218        0.08335       -1.63630
C          1.51782        2.26310        3.61611
C          0.11170        3.75475        2.47245
O          1.22869        2.88573        2.35079
C          0.38763        1.38155        4.20530
C          0.35397        4.94332        3.42126
H          2.46165        1.71272        3.51126
H          1.86245        2.98606        4.37953
H         -0.10803        4.17390        1.47429
H         -0.80200        3.19770        2.76795
H          1.22029        5.54221        3.07325
H         -0.55064        5.58176        3.45479
H          0.53319        4.62517        4.46978
H         -0.05864        0.69556        3.45619
H          0.78807        0.77361        5.04589
H         -0.43320        2.00337        4.61281
C         -1.85016        0.95150       -0.00989
C         -2.41095       -0.28636       -0.26003
C         -1.36608       -1.18536       -0.36123
C         -0.20865       -0.45684       -0.17446
N         -0.51314        0.83433        0.05524
C          1.20684       -1.01637       -0.21348
N          2.24500        0.03300       -0.00400
C          3.23043       -0.24115        1.06666
H         -3.46531       -0.50736       -0.36169
H         -2.38690        1.88181        0.11585
H         -1.44179       -2.24766       -0.55310
H          1.38198       -1.48742       -1.20170
H          1.25692       -1.83083        0.53228
C          4.10814       -1.45940        0.77009
C          4.13077        1.00595        1.14665
C          2.53011       -0.52184        2.39344
H          4.62372       -1.29802       -0.17724
H          4.86829       -1.59354        1.57227
H          3.50855       -2.39352        0.71528
H          3.53693        1.92024        1.34678
H          4.90437        0.89917        1.93628
H          4.65220        1.15541        0.17393
H          1.67178        0.13525        2.40790
H          2.09115       -1.53416        2.47110
H          3.22161       -0.40653        3.25681
Na         9.31631        0.60545       -2.92352
C          0.99029        4.17840       -1.48867
C          1.48156        2.15062       -2.63945
O          1.62680        2.91629       -1.43974
C         -0.46172        4.17746       -1.98393
C          2.27200        2.73850       -3.81489
H          0.99409        4.56692       -0.45424
H          1.60777        4.89307       -2.07210
H          1.88297        1.13669       -2.46451
H          0.42040        1.97886       -2.91896
H          3.34204        2.81344       -3.55239
H          2.17321        2.08392       -4.70805
H          1.90629        3.74763       -4.09138
H         -1.06279        3.44323       -1.40979
H         -0.89229        5.18958       -1.84742
H         -0.51826        3.94531       -3.06787
C          8.14090        2.09601       -5.24406
C          7.03686        2.60477       -5.89861
C          5.94678        2.31575       -5.10030
C          6.42304        1.62747       -4.00152
N          7.77365        1.50369       -4.10185
C          5.58529        1.09715       -2.86113
N          4.51935        0.13370       -3.26860
C          5.03383       -1.19102       -3.77688
H          7.02834        3.13264       -6.84530
H          9.15742        2.14825       -5.61304
H          4.91589        2.56947       -5.31936
H          5.09038        1.96977       -2.38749
H          6.22478        0.66627       -2.07154
C          5.98334       -1.90430       -2.78083
C          3.82724       -2.10389       -4.02811
C          5.79766       -1.07264       -5.12253
H          5.47784       -2.13518       -1.83836
H          6.32446       -2.87877       -3.19209
H          6.90481       -1.32009       -2.57884
H          3.16439       -1.66114       -4.80031
H          4.16636       -3.09984       -4.39574
H          3.24867       -2.25417       -3.09311
H          5.19529       -0.54005       -5.88598
H          6.78009       -0.58495       -5.01765
H          6.05295       -2.08095       -5.51649
