83
speciation717.ct
Na         1.66147        0.96268        0.96419
Li         2.38246       -3.11475        1.33386
C          1.14630       -5.49406        0.84986
C          3.50118       -5.72743        0.90495
O          2.40325       -4.88705        0.58789
C          0.92450       -5.92718        2.29916
C          3.60522       -6.94195       -0.02741
H          0.38766       -4.74910        0.63070
H          0.91410       -6.29774        0.12641
H          4.43681       -5.16613        0.74771
H          3.49337       -6.02760        1.97080
H          3.83759       -6.61221       -1.06343
H          4.41660       -7.60780        0.32938
H          2.67626       -7.54461       -0.04429
H          1.13020       -5.08049        2.97246
H         -0.13313       -6.22693        2.43864
H          1.55761       -6.79629        2.56769
C          4.69516        1.65107        2.65682
C          5.54405        2.72793        2.44321
C          4.94980        3.52690        1.49969
C          3.76974        2.87662        1.19710
N          3.60407        1.72862        1.84405
C          2.78118        3.24431        0.18935
N          2.75880        2.06888       -0.66549
C          3.62313        2.19363       -1.91217
H          6.50306        2.91264        2.90366
H          4.90697        0.86195        3.32750
H          5.30315        4.44621        1.08858
H          3.01352        4.19275       -0.33369
H          1.79240        3.35282        0.68471
C          5.03399        2.82716       -1.68860
C          4.02534        0.87177       -2.59338
C          2.80670        3.02006       -2.91617
H          5.68772        2.14140       -1.09520
H          5.52989        2.96566       -2.66712
H          5.02688        3.81189       -1.19682
H          3.23179        0.24711       -2.94031
H          4.58847        1.05477       -3.52999
H          4.72843        0.31624       -1.95210
H          1.82013        2.52892       -3.08164
H          2.61926        4.04097       -2.52990
H          3.32878        3.10521       -3.88780
Na         1.93740        0.23799        0.34307
C          4.50239       -1.82070        2.68555
C          3.39590       -3.42755        4.02986
O          3.27747       -2.48285        2.96994
C          5.66030       -2.72570        2.27078
C          3.77288       -2.80866        5.38922
H          4.30396       -1.10858        1.86380
H          4.82403       -1.20766        3.54194
H          2.39961       -3.86823        4.19634
H          4.08640       -4.25337        3.76447
H          3.02750       -2.04231        5.68990
H          3.78958       -3.60710        6.16158
H          4.78439       -2.35353        5.38540
H          5.34824       -3.38039        1.44690
H          6.50923       -2.10504        1.91489
H          6.02546       -3.32920        3.12902
C         -1.66102        1.01277        0.82528
C         -2.79346        0.29761        0.46519
C         -2.37430       -0.95617        0.13018
C         -1.01439       -0.94373        0.32126
N         -0.54487        0.25039        0.71870
C         -0.17457       -2.13464        0.01517
N          1.27300       -1.85096        0.15063
C          1.89986       -1.69451       -1.17735
H         -3.81872        0.64365        0.41501
H         -1.66522        2.04952        1.12332
H         -2.97684       -1.78364       -0.23501
H         -0.52510       -2.93802        0.66863
H         -0.47364       -2.44197       -1.00110
C          1.14867       -0.52760       -1.97168
C          3.40445       -1.52649       -0.84211
C          1.86884       -2.95944       -2.06793
H          1.20224        0.48351       -1.52510
H          1.38909       -0.44133       -3.04098
H          0.05587       -0.65845       -2.05597
H          3.72222       -2.37026       -0.17977
H          4.05191       -1.63492       -1.72449
H          3.67530       -0.62243       -0.26681
H          2.45446       -3.77842       -1.62507
H          0.86692       -3.32257       -2.34910
H          2.37302       -2.68694       -3.02499
