66
speciation231.ct
Na         1.61741        1.46031        1.02166
Li         2.61565       -2.66534        1.06680
H          4.24669       -3.88048        2.71447
C          3.57029       -5.51936        1.43761
C          3.32877       -4.21465        2.18604
C          4.64545       -5.38397        0.35853
H          3.88175       -6.29727        2.16929
H          2.61053       -5.83173        0.97180
H          4.35861       -4.60165       -0.36683
H          5.61459       -5.09139        0.81636
C          4.81377       -6.70454       -0.38902
H          2.53523       -4.39571        2.94164
H          5.14960       -7.50077        0.30904
H          3.84962       -7.01088       -0.85052
H          5.56930       -6.58881       -1.19345
C          4.46067        1.71718        2.92868
C          5.38230        2.75613        2.87230
C          4.94932        3.64282        1.91346
C          3.75765        3.11778        1.45520
N          3.45649        1.97308        2.03755
C          2.86000        3.68229        0.43454
N          2.68803        2.66488       -0.58622
C          3.62722        2.79689       -1.75116
H          6.28242        2.85172        3.45681
H          4.48597        0.87860        3.60957
H          5.40870        4.56249        1.58521
H          3.18139        4.65472        0.01692
H          1.86630        3.82001        0.92725
C          5.13126        3.18316       -1.45401
C          3.74821        1.48464       -2.40675
C          2.97123        3.71028       -2.79313
H          5.73728        2.33340       -1.04315
H          5.63676        3.41456       -2.41964
H          5.28889        4.03434       -0.78019
H          2.75289        1.11281       -2.68185
H          4.40850        1.44643       -3.29733
H          4.24621        0.93741       -1.61640
H          1.95856        3.30626       -3.03782
H          2.86694        4.74329       -2.43068
H          3.55851        3.69438       -3.73888
Li         2.43181        0.74002       -0.15449
C         -1.65996        1.03284        0.87174
C         -2.56760        0.02622        0.57767
C         -1.83148       -1.11402        0.40335
C         -0.51173       -0.73954        0.60372
N         -0.39396        0.55925        0.86397
C          0.62714       -1.66982        0.53793
N          1.92000       -1.15400       -0.02500
C          1.96510       -1.54730       -1.48081
H         -3.64610        0.10539        0.47906
H         -1.92105        2.06485        1.04054
H         -2.21012       -2.09959        0.14617
H          0.77117       -2.14730        1.52590
H          0.21281       -2.52533       -0.00800
C          0.89658       -0.64110       -2.18833
C          3.37021       -1.31034       -2.03699
C          1.82480       -3.08118       -1.79052
H          0.96475        0.39999       -1.79382
H          0.97639       -0.59741       -3.29120
H         -0.14392       -0.94434       -1.95151
H          4.05172       -2.17868       -2.10408
H          3.33907       -0.97361       -3.10315
H          3.95423       -0.88878       -1.22371
H          2.66802       -3.61012       -1.30080
H          0.94283       -3.65274       -1.47877
H          1.92271       -3.25720       -2.88576
