96
speciation1632.ct
Na         1.31070       -1.37042       -0.25164
Mg         3.27131        3.52884       -1.15019
C          4.23268        6.44494        0.68061
C          5.27081        6.34281       -1.39610
O          4.39613        5.60565       -0.52459
C          3.31524        7.66508        0.59435
C          6.71060        6.70126       -0.85394
H          3.92991        5.93088        1.57460
H          5.17786        6.73066        1.14578
H          5.42128        5.79524       -2.34075
H          4.77002        7.28406       -1.68803
H          7.39920        5.83138       -0.86964
H          7.13875        7.50524       -1.48973
H          6.82016        7.16017        0.14940
H          2.26718        7.37609        0.39617
H          3.33979        8.16872        1.59104
H          3.66188        8.39758       -0.15185
H          1.33718        2.23686       -2.43053
C          1.14801        3.56649       -4.09123
C          1.50524        3.32123       -2.59610
C          1.99528        2.77743       -5.11635
H          0.07253        3.32920       -4.26871
H          1.29026        4.64928       -4.27783
H          1.84235        3.21320       -6.13383
H          3.05851        2.90086       -4.84952
C          1.63695        1.28497       -5.25777
H          0.75468        3.88018       -2.00324
H          1.43739        0.79800       -4.28415
H          0.74479        1.15362       -5.91260
H          2.47938        0.75274       -5.75268
C          5.42296        2.56168       -2.66273
C          6.17014        1.57829       -3.27706
C          5.59324        0.38730       -2.93751
C          4.51055        0.66895       -2.11452
N          4.43023        2.03926       -1.94034
C          3.55281       -0.45073       -1.67697
N          3.37672       -0.76244       -0.22511
C          3.97972       -2.04774        0.29869
H          7.01377        1.72846       -3.93829
H          5.60041        3.61464       -2.77363
H          5.91266       -0.59229       -3.28067
H          3.85565       -1.36503       -2.21275
H          2.56181       -0.21326       -2.09583
C          5.49599       -1.98750        0.27576
C          3.52185       -2.21075        1.76845
C          3.55749       -3.32820       -0.44830
H          5.79495       -1.24316        0.99111
H          5.96554       -2.91741        0.64982
H          5.88726       -1.75274       -0.73499
H          2.41690       -2.34479        1.83490
H          3.99911       -3.09535        2.24314
H          3.79616       -1.31849        2.37576
H          2.46505       -3.50017       -0.40480
H          3.89099       -3.35632       -1.50251
H          4.04436       -4.21282        0.03188
Mg         3.57090        0.74337        1.12035
C          6.23008        1.21951        3.01136
C          6.80287        1.03654        0.70261
O          5.77066        0.82633        1.70235
C          7.08635        2.51759        3.12549
C          8.08218        0.17536        0.88627
H          5.33843        1.34689        3.64314
H          6.81815        0.38713        3.45947
H          6.39653        0.78192       -0.28773
H          7.08977        2.10542        0.62267
H          7.89911       -0.91257        0.80668
H          8.82252        0.42112        0.08802
H          8.59164        0.35044        1.85593
H          6.64826        3.37201        2.60341
H          8.11031        2.39602        2.71657
H          7.19416        2.80836        4.19006
C          1.31814        0.18778        3.55843
C          0.02931        0.70334        3.63481
C         -0.21228        1.41619        2.47812
C          0.93446        1.28901        1.70536
N          1.91465        0.59473        2.38523
C          1.20687        1.94028        0.41257
N          2.59853        2.44489        0.43495
C          2.87397        3.51095        1.38533
H         -0.66117        0.62305        4.46495
H          1.80804       -0.38602        4.30584
H         -1.09142        1.98003        2.22965
H          0.43596        2.69412        0.14972
H          1.13005        1.15488       -0.36491
C          2.70149        3.24473        2.90613
C          4.37929        3.58274        1.19770
C          1.91633        4.70719        1.06354
H          3.27233        2.35847        3.24509
H          3.12686        4.10689        3.46604
H          1.64606        3.18499        3.22835
H          4.74984        3.56638        0.15809
H          4.94170        4.25141        1.84679
H          4.70950        2.62958        1.49819
H          2.01465        5.04815        0.01231
H          0.85354        4.44937        1.21979
H          1.98867        5.53594        1.79266
