95
speciation1437.ct
Na         1.36796        0.28536        0.83550
Mg         2.86981        2.09614        3.16949
C          1.50111       -1.16100        3.11678
C         -0.89013       -1.10752        3.12325
O          0.34160       -0.91549        2.40461
C          1.83141       -2.63285        3.22513
C         -1.26515       -2.54819        3.45514
H          2.24640       -0.77529        2.42741
H          1.57071       -0.55838        4.03689
H         -0.94730       -0.51100        4.04386
H         -1.71575       -0.79143        2.45787
H         -0.72752       -2.88896        4.35326
H         -2.33823       -2.58133        3.72524
H         -1.11102       -3.24287        2.61002
H          1.62919       -3.15186        2.26553
H          2.89613       -2.74819        3.47938
H          1.28091       -3.10359        4.03731
H          4.09449        4.19263        2.16239
C          2.19242        5.13857        2.66557
C          3.01934        3.92542        2.21740
C          2.61223        5.72267        4.02432
H          2.32971        5.92778        1.89538
H          1.11736        4.85811        2.69811
H          2.44804        4.97575        4.83069
H          3.68982        5.99378        4.00150
C          1.80374        6.98637        4.33261
H          2.66284        3.62767        1.21103
H          1.97748        7.75706        3.54971
H          0.71755        6.75662        4.37187
H          2.11117        7.41211        5.31120
C          1.10821        2.25532        4.90675
C         -0.13529        2.26283        5.45011
C         -0.99982        1.97532        4.40499
C         -0.24402        1.78157        3.21644
N          1.06449        1.99914        3.57556
C         -0.89726        1.52932        1.78700
N         -0.61512        0.49488        0.66524
C         -0.72898       -0.74450       -0.27564
H         -0.36533        2.46748        6.49945
H          2.02310        2.45439        5.46525
H         -2.06566        1.92715        4.51719
H         -1.99768        1.49115        1.99294
H         -0.73696        2.51326        1.28979
C         -2.13308       -1.38922       -0.40474
C         -0.28762       -0.31594       -1.70155
C          0.21259       -1.95250        0.03739
H         -2.89222       -0.71605       -0.83716
H         -2.07581       -2.26246       -1.10838
H         -2.48303       -1.81155        0.55586
H          0.75501        0.07023       -1.70267
H         -0.30128       -1.18401       -2.40859
H         -0.96245        0.44773       -2.13155
H          1.25230       -1.64615        0.17381
H         -0.11242       -2.55402        0.88711
H          0.21729       -2.70484       -0.78440
Na        -2.36058        1.37788       -0.29676
Mg         4.12871        1.05445       -1.58712
H          4.78620        3.20207       -2.97560
C          4.00570        1.77182       -4.43896
C          4.80870        2.11310       -3.19288
C          2.53157        2.13835       -4.27148
H          4.43491        2.32331       -5.30391
H          4.09819        0.68000       -4.62823
H          2.10098        1.58691       -3.40703
H          2.43989        3.23005       -4.08357
C          1.74571        1.78426       -5.53136
H          5.86223        1.80307       -3.35774
H          2.16388        2.32231       -6.40935
H          1.79322        0.69028       -5.72050
H          0.68323        2.07944       -5.40636
C          4.23456       -0.22892        4.58046
C          5.02875       -1.28647        4.19572
C          5.28567       -1.12037        2.84581
C          4.58111        0.00670        2.42999
N          3.98655        0.55652        3.50672
C          4.38198        0.64758        1.01211
N          3.46538        0.02175       -0.02072
C          4.00799       -1.33018       -0.51446
H          5.35587       -2.09560        4.83193
H          3.80683       -0.07010        5.56050
H          5.87621       -1.79785        2.24419
H          5.36921        0.91048        0.60844
H          3.91545        1.62460        1.21819
C          3.81629       -2.50656        0.48145
C          3.33003       -1.82886       -1.81743
C          5.52064       -1.21724       -0.87227
H          2.87766       -3.06996        0.34023
H          4.63280       -3.26034        0.40963
H          3.73496       -2.17879        1.49143
H          3.40726       -1.11254       -2.65275
H          3.80869       -2.78967       -2.13465
H          2.26990       -2.09275       -1.68043
H          5.67802       -0.44160       -1.65095
H          6.16137       -0.99547        0.00186
H          5.90786       -2.17725       -1.27981
