110
speciation2561.ct
Na         1.00751        1.67076        0.26993
Mg         3.44160       -0.49559       -1.35284
C          5.58597       -2.20340       -2.03548
C          3.49169       -3.25430       -1.60477
O          4.35429       -2.16918       -1.30894
C          5.52782       -2.47691       -3.54994
C          4.00913       -4.56722       -1.02792
H          6.06992       -1.21948       -1.91042
H          6.27714       -2.92353       -1.55118
H          2.52344       -3.06154       -1.11587
H          3.26756       -3.34204       -2.68539
H          4.13940       -4.46544        0.06971
H          3.27641       -5.37497       -1.23535
H          4.97599       -4.85004       -1.49123
H          4.91268       -1.72903       -4.07186
H          6.55246       -2.40687       -3.97225
H          5.15743       -3.49696       -3.77862
H          1.71974        0.31689       -3.58834
C          1.31663       -1.57168       -4.24148
C          2.27666       -0.63803       -3.52230
C          1.02670       -1.01847       -5.66403
H          1.77728       -2.57555       -4.32609
H          0.37348       -1.63215       -3.66208
H          0.58168        0.00060       -5.59741
H          1.96957       -0.93620       -6.25442
C          0.06340       -1.91289       -6.42647
H          3.12361       -0.60433       -4.23418
H          0.51625       -2.91366       -6.57795
H         -0.88754       -2.00997       -5.86161
H         -0.15363       -1.46511       -7.42002
C         -2.10380        0.83627        0.39802
C         -2.77651       -0.35219        0.28207
C         -1.81725       -1.32732        0.08935
C         -0.59984       -0.67961        0.10097
N         -0.77684        0.63203        0.26901
C          0.75184       -1.31816       -0.07503
N          1.86230       -0.37015        0.18759
C          2.35648       -0.37079        1.59074
H         -3.84409       -0.50081        0.34279
H         -2.56316        1.80941        0.54811
H         -1.99240       -2.38995       -0.04073
H          0.79126       -1.65805       -1.12575
H          0.82086       -2.21559        0.56902
C          3.10896       -1.66819        1.92930
C          3.32477        0.79374        1.71220
C          1.23453       -0.15020        2.63711
H          3.88770       -1.87543        1.17128
H          3.60241       -1.57898        2.92025
H          2.42481       -2.53678        1.98945
H          2.85024        1.76688        1.49505
H          3.80999        0.85642        2.70884
H          4.07991        0.59678        0.96738
H          0.64144        0.74662        2.40666
H          0.53744       -1.00860        2.67744
H          1.67239       -0.01431        3.65207
Na         3.76144        4.07471        0.65748
Mg         3.16456        5.64119       -3.62297
C          3.90517        8.30731       -3.11660
C          2.08312        8.13721       -4.52898
O          3.28149        7.51588       -4.10823
C          5.20486        7.65576       -2.66806
C          1.37183        7.27380       -5.55840
H          4.17777        9.29966       -3.54514
H          3.24757        8.44206       -2.22831
H          1.38993        8.32536       -3.67746
H          2.33023        9.09819       -5.03640
H          1.01337        6.33416       -5.08964
H          0.49828        7.83042       -5.96256
H          2.05797        7.03287       -6.39763
H          5.87694        7.49862       -3.53837
H          5.71780        8.32022       -1.93928
H          4.99765        6.68052       -2.18039
H          5.98238        1.03665       -1.85217
C          6.38751        1.45057        0.18188
C          5.36180        1.19221       -0.94227
C          7.29120        2.66594       -0.15038
H          5.87371        1.69815        1.13218
H          7.00873        0.54579        0.32641
H          7.85428        2.48144       -1.09069
H          6.66955        3.58025       -0.29177
C          8.28108        2.94218        0.97778
H          4.89577        2.19420       -1.00817
H          7.73638        3.18375        1.91575
H          8.92226        2.05245        1.14630
H          8.92825        3.80711        0.71412
C          3.82367        2.82326       -3.69956
C          3.65344        1.68405       -3.03745
C          2.69703        1.91246       -2.03991
C          2.36273        3.21929       -2.11114
N          3.04462        3.71819       -3.12520
C          1.47084        4.05281       -1.21260
N          1.69626        3.72975        0.20751
C          0.89597        4.50007        1.20277
H          4.22895        0.80146       -3.23832
H          4.51308        3.02006       -4.50955
H          2.36440        1.22856       -1.32276
H          0.42365        3.82648       -1.48427
H          1.67931        5.12628       -1.41358
C         -0.61463        4.38870        0.92397
C          1.16949        3.90433        2.59662
C          1.30488        5.98752        1.25444
H         -0.90173        3.32391        0.87662
H         -1.20419        4.87159        1.73366
H         -0.89466        4.88445       -0.02768
H          2.24872        3.96415        2.85341
H          0.59268        4.43614        3.38519
H          0.86535        2.84869        2.62967
H          2.37753        6.09327        1.52332
H          1.12046        6.50125        0.29129
H          0.70742        6.51854        2.03118
