95
speciation1189.ct
Na        -1.18752        5.97845        1.41701
Mg         3.84058        4.70240        0.99354
C         -2.02770        8.64331        2.80625
C         -3.58934        8.05129        1.14096
O         -2.23140        8.04684        1.53725
C         -2.71552        7.91376        3.96729
C         -3.73030        7.35232       -0.20344
H         -0.93399        8.61638        2.99745
H         -2.30975        9.71907        2.78747
H         -4.23915        7.50282        1.85306
H         -3.94208        9.09952        1.01794
H         -3.43321        6.28575       -0.11043
H         -4.78976        7.39739       -0.53606
H         -3.09236        7.84572       -0.96590
H         -2.44473        6.83726        3.96136
H         -2.38868        8.36356        4.92813
H         -3.81832        8.02298        3.92015
H          6.39128        3.97003        1.39565
C          6.87815        4.75407       -0.54568
C          5.88262        4.07550        0.41527
C          7.27998        6.15229       -0.06657
H          7.79616        4.12287       -0.60673
H          6.44048        4.81409       -1.56423
H          6.37316        6.78968       -0.02415
H          7.72812        6.08772        0.94940
C          8.30432        6.80363       -1.00207
H          5.70025        3.05378        0.01369
H          9.25294        6.22335       -1.01907
H          7.90578        6.87310       -2.03644
H          8.53276        7.83063       -0.64431
C          3.94176        2.42527        2.81608
C          3.19849        1.74280        3.74894
C          1.94142        2.30596        3.73837
C          1.94406        3.27650        2.75068
N          3.18701        3.37305        2.22912
C          0.79614        4.22440        2.42260
N         -0.12114        3.86547        1.29417
C         -1.05831        2.72722        1.51464
H          3.54672        0.94497        4.39259
H          4.99015        2.26040        2.60108
H          1.11802        2.03243        4.38080
H          1.26762        5.18907        2.15690
H          0.23460        4.47910        3.34297
C         -1.86905        2.86805        2.82040
C         -2.03173        2.67859        0.33883
C         -0.32258        1.35672        1.51668
H         -2.45791        3.81945        2.80837
H         -2.57670        2.02490        2.93597
H         -1.22286        2.86385        3.72129
H         -1.47984        2.53390       -0.61869
H         -2.74794        1.83624        0.45206
H         -2.61320        3.62574        0.27145
H          0.30541        1.23442        0.61072
H          0.30283        1.19633        2.39761
H         -1.05291        0.51834        1.56021
Na         5.76265        8.52202        6.00934
Mg         3.33589        6.28339        6.51840
H          2.27733        3.31348       -0.70266
C          2.15852        4.93584       -2.08971
C          2.33649        4.42343       -0.65882
C          3.26756        4.47708       -3.03805
H          1.17787        4.58665       -2.49905
H          2.12985        6.04339       -2.05398
H          3.12934        5.00442       -4.00636
H          4.24652        4.76717       -2.60920
C          3.24008        2.97219       -3.33536
H          1.43087        4.77900       -0.15706
H          3.38246        2.36414       -2.41992
H          2.27758        2.68702       -3.81482
H          4.06260        2.72700       -4.03970
C          3.01738        7.49360        1.76519
C          3.00376        8.51624        2.68516
C          3.75939        8.10092        3.74294
C          4.20542        6.82269        3.42714
N          3.73854        6.44213        2.20671
C          5.09025        6.01522        4.33803
N          5.13843        6.48886        5.75878
C          6.05983        5.75084        6.65826
H          2.51014        9.46363        2.58054
H          2.49052        7.49087        0.81603
H          3.96957        8.67323        4.63488
H          4.76453        4.96145        4.30307
H          6.08043        6.08319        3.83778
C          7.52855        5.97333        6.19714
C          5.90347        6.28374        8.11078
C          5.72425        4.24385        6.73094
H          7.92079        6.95068        6.55512
H          7.64682        6.02116        5.10541
H          8.19629        5.13402        6.49128
H          4.86744        6.12725        8.50080
H          6.59591        5.76434        8.82725
H          6.12007        7.37125        8.18800
H          4.67296        4.09235        7.03651
H          5.90573        3.72942        5.75450
H          6.36954        3.73577        7.47948
