83
speciation268.ct
Na         0.28206        1.06004        5.31713
Mg        -2.22621        4.37353        2.51444
C          2.64186        1.04659        7.18422
C          2.22689        3.22320        6.28255
O          2.09781        1.82065        6.11684
C          2.19346        1.45288        8.59654
C          3.68193        3.69572        6.15175
H          2.31125        0.00282        7.02226
H          3.75200        1.01668        7.11983
H          1.65652        3.71274        5.46916
H          1.76934        3.58560        7.22553
H          4.09288        3.40999        5.16103
H          3.72649        4.80168        6.24959
H          4.32299        3.26312        6.94878
H          1.08647        1.50055        8.65065
H          2.56039        0.70510        9.33154
H          2.62808        2.43143        8.89265
C          0.12927        2.86467        2.71915
C         -0.34021        3.00717        1.42398
C         -1.05980        1.86775        1.14619
C         -0.99583        1.07782        2.28234
N         -0.26372        1.68962        3.24787
C         -1.63700       -0.26373        2.44172
N         -2.38323       -0.67266        1.22615
C         -3.06422       -1.98659        1.33488
H         -0.18369        3.84219        0.76138
H          0.73171        3.59385        3.23958
H         -1.56988        1.64434        0.21750
H         -0.82558       -0.98431        2.66568
H         -2.31833       -0.17778        3.30965
C         -4.09899       -2.00590        2.48387
C         -3.80977       -2.22474        0.01229
C         -2.04709       -3.13374        1.53059
H         -4.83218       -1.18024        2.36193
H         -4.65162       -2.97024        2.49209
H         -3.61705       -1.91324        3.47860
H         -3.09795       -2.22743       -0.84086
H         -4.34028       -3.20237        0.02858
H         -4.56048       -1.42438       -0.16079
H         -1.29539       -3.13000        0.71244
H         -1.51666       -3.05606        2.50136
H         -2.56432       -4.11750        1.52844
Na        -3.99632        0.97956        0.69230
C         -2.39022        0.59423        6.53297
C         -0.76004       -0.89185        7.46265
O         -1.15358       -0.08750        6.35930
C         -2.52748        1.40183        7.83286
C         -1.63659       -2.14326        7.61840
H         -2.47256        1.31169        5.69254
H         -3.24149       -0.10859        6.40959
H          0.27718       -1.24958        7.28974
H         -0.71379       -0.31612        8.41050
H         -1.54281       -2.79399        6.72620
H         -1.32015       -2.71718        8.51585
H         -2.70707       -1.87642        7.75851
H         -1.68237        2.11276        7.93935
H         -3.48006        1.97307        7.80863
H         -2.58149        0.74146        8.72394
C         -4.31036        3.48635        4.36760
C         -5.63643        3.11767        4.44878
C         -6.14349        3.18536        3.16702
C         -5.10225        3.59540        2.35690
N         -3.98619        3.77693        3.09424
C         -5.18372        3.84775        0.87704
N         -5.60941        2.63178        0.15844
C         -5.75458        2.76641       -1.30997
H         -6.17245        2.83855        5.34665
H         -3.61939        3.55050        5.19861
H         -7.16054        2.97267        2.86536
H         -4.18149        4.17489        0.53335
H         -5.91480        4.66624        0.73013
C         -4.42210        3.16434       -1.98290
C         -6.17811        1.39209       -1.85306
C         -6.84897        3.79320       -1.67447
H         -3.62219        2.43750       -1.72602
H         -4.53846        3.18204       -3.08866
H         -4.09523        4.17970       -1.67912
H         -7.13862        1.07202       -1.39475
H         -6.31107        1.42601       -2.95674
H         -5.40743        0.62714       -1.61770
H         -7.81371        3.51947       -1.19629
H         -6.57292        4.81930       -1.35747
H         -6.99871        3.82841       -2.77515
