96
speciation1006.ct
Na         1.22261        0.31011        0.10828
Mg         1.30233        4.33202       -4.39753
C          4.18065        0.13281        1.20037
C          3.95779        1.68561       -0.57850
O          3.41471        0.53829        0.05966
C          4.58973        1.24834        2.19256
C          5.28704        1.38392       -1.28719
H          3.57625       -0.59650        1.74465
H          5.07917       -0.44309        0.89339
H          3.24373        2.03650       -1.34435
H          4.06368        2.53928        0.12096
H          5.12149        0.67615       -2.12544
H          5.71617        2.32617       -1.68699
H          6.04173        0.95070       -0.59742
H          3.70755        1.85845        2.48208
H          5.04207        0.79746        3.10380
H          5.36100        1.92304        1.77061
H          3.65769        5.28363       -4.76433
C          3.02227        4.88779       -6.78226
C          3.15495        4.46275       -5.31746
C          2.35441        3.84590       -7.69900
H          2.43862        5.82802       -6.83614
H          4.03943        5.08917       -7.18671
H          2.33276        4.27817       -8.72514
H          2.95079        2.90596       -7.73742
C          0.91730        3.51698       -7.29691
H          3.76184        3.53793       -5.23099
H          0.89963        2.94024       -6.34889
H          0.32538        4.44819       -7.17633
H          0.44429        2.90218       -8.09422
C         -1.59670        4.67015       -4.09618
C         -2.68937        4.29091       -3.34106
C         -2.20621        3.47031       -2.34659
C         -0.84121        3.36835       -2.54021
N         -0.46649        4.12987       -3.59250
C          0.10776        2.51306       -1.76179
N         -0.20352        1.06833       -1.86665
C         -0.07288        0.45071       -3.24360
H         -3.72153        4.57537       -3.48894
H         -1.63949        5.29852       -4.97812
H         -2.79189        2.99229       -1.57047
H          0.01316        2.81685       -0.69275
H          1.13688        2.71500       -2.05776
C          1.34324        0.62056       -3.83910
C         -0.37684       -1.05574       -3.14009
C         -1.12042        0.98063       -4.27288
H          2.08842        0.04896       -3.24921
H          1.36708        0.24138       -4.88577
H          1.65642        1.68126       -3.89387
H         -1.41507       -1.22253       -2.77744
H         -0.29473       -1.53634       -4.14412
H          0.33063       -1.56563       -2.45895
H         -2.15599        0.87061       -3.88964
H         -0.96460        2.01171       -4.60766
H         -1.05982        0.40821       -5.22498
Mg        -2.16002        0.88767       -1.55106
C         -0.27686       -0.00423        2.90095
C          1.58715       -1.27290        3.29115
O          0.88594       -0.50810        2.29247
C         -1.17051        0.50885        1.84449
C          2.26295       -0.36766        4.33314
H         -0.06262        0.84133        3.59148
H         -0.84064       -0.80806        3.43625
H          0.92303       -1.99057        3.83989
H          2.31910       -1.95110        2.81528
H          1.53039        0.21066        4.93295
H          2.88358       -0.95168        5.04095
H          2.89190        0.35637        3.82176
H         -1.09293       -0.10863        0.92539
H         -2.18905        0.44913        2.26590
H         -0.89116        1.55820        1.61729
C         -8.13470        0.24249       -2.98048
C         -8.17102       -1.05359       -2.51553
C         -6.87818       -1.40274       -2.16691
C         -6.08096       -0.35570       -2.40183
N         -6.81666        0.73202       -2.92335
C         -4.58795       -0.33932       -2.17067
N         -4.11651        0.70701       -1.23548
C         -4.53621        0.61240        0.18237
H         -9.05417       -1.67667       -2.44546
H         -8.98932        0.80284       -3.33819
H         -6.56544       -2.35908       -1.76914
H         -4.12753       -0.14537       -3.15859
H         -4.22506       -1.33551       -1.84693
C         -4.12455       -0.75139        0.78004
C         -3.86240        1.79548        0.88250
C         -6.05310        0.80999        0.41429
H         -3.06598       -0.98284        0.57170
H         -4.30925       -0.77924        1.87481
H         -4.72599       -1.57294        0.33435
H         -4.27767        2.75997        0.52538
H         -3.99898        1.74808        1.98562
H         -2.80275        1.83799        0.60031
H         -6.40047        1.76800       -0.02860
H         -6.66573       -0.01581        0.02131
H         -6.26753        0.83643        1.50615
