95
speciation1540.ct
Na         1.32635        3.00533        1.81361
Mg         2.59477        8.76333       -2.22833
C          2.35151        7.60264       -4.95645
C          4.32461        6.98407       -3.86237
O          3.27229        7.93091       -3.91418
C          1.78468        6.17429       -4.91214
C          5.23468        7.29082       -2.71393
H          1.50348        8.30700       -4.88681
H          2.80696        7.78817       -5.95562
H          3.96786        5.95083       -3.67105
H          4.93133        7.04199       -4.79275
H          4.63637        7.16526       -1.78933
H          6.08243        6.57924       -2.68175
H          5.63513        8.31486       -2.84378
H          1.48241        5.93163       -3.89418
H          0.92276        6.07440       -5.60121
H          2.53495        5.41494       -5.20779
H          1.70496       11.06052       -3.44542
C          0.31866       10.99153       -1.77030
C          1.15503       10.30464       -2.85124
C         -0.69515       12.01566       -2.30677
H         -0.28084       10.20780       -1.29799
H          0.99746       11.48078       -1.04088
H         -0.16709       12.81943       -2.85910
H         -1.40973       11.51203       -2.99481
C         -1.48926       12.64553       -1.15510
H          0.44202        9.76852       -3.51406
H         -2.04959       11.87170       -0.58761
H         -0.80474       13.17473       -0.45730
H         -2.21934       13.38318       -1.55315
C         -1.59424        3.78538        0.60065
C         -2.49701        4.12155       -0.36698
C         -1.91833        5.10895       -1.12597
C         -0.67036        5.42607       -0.59525
N         -0.41204        4.48052        0.42573
C          0.06396        6.59850       -1.45969
N          1.37204        7.32910       -1.17915
C          1.35373        7.67395        0.32981
H         -3.44768        3.64343       -0.56574
H         -1.73986        2.97952        1.30358
H         -2.34539        5.53562       -2.00057
H         -0.69260        7.40454       -1.52407
H          0.08953        6.20883       -2.48039
C          1.66974        6.47413        1.26782
C          2.44571        8.63581        0.62624
C          0.05490        8.34692        0.88675
H          2.49382        5.83803        0.89509
H          1.96246        6.82008        2.28491
H          0.78854        5.91794        1.55033
H          2.22882        9.54322        0.03205
H          2.48655        8.93789        1.69933
H          3.39151        8.10766        0.41392
H         -0.11848        9.35367        0.50349
H         -0.85795        7.73779        0.74995
H          0.14962        8.50669        1.98482
Na         2.12448        5.08172       -1.18254
Mg         4.15783        2.51434       -2.62280
H          4.15951       10.22555       -0.03705
C          5.69715       10.73537       -1.24698
C          4.56114        9.74765       -0.94945
C          6.67225       10.92025       -0.04009
H          6.27677       10.40415       -2.12774
H          5.23525       11.71674       -1.47138
H          7.39788       11.71720       -0.31086
H          6.11731       11.26155        0.86380
C          7.49060        9.67334        0.33726
H          5.09041        8.83894       -0.61913
H          6.85125        8.85481        0.72797
H          8.06649        9.30650       -0.53762
H          8.21136        9.93499        1.14409
C          3.51960       -0.26508        1.48069
C          4.67334       -0.46027        0.71524
C          4.92090        0.72767        0.10865
C          3.91281        1.56631        0.53492
N          3.03192        1.02231        1.37799
C          3.63271        2.89841        0.07049
N          2.87691        2.83434       -1.18594
C          1.70133        1.98582       -1.61535
H          5.28250       -1.35339        0.56286
H          3.03503       -1.06698        2.04064
H          5.73609        0.97876       -0.58726
H          3.06804        3.46563        0.82465
H          4.58428        3.44129       -0.07451
C          0.51340        2.24798       -0.76606
C          1.27291        2.42141       -3.04113
C          1.96153        0.47226       -1.66870
H         -0.19346        2.92375       -1.27456
H         -0.05616        1.39473       -0.35164
H          0.93893        2.83247       -0.01108
H          2.02683        2.17799       -3.80583
H          0.31127        1.91895       -3.31432
H          1.07210        3.51908       -3.06677
H          2.82452        0.24576       -2.31882
H          2.10095        0.02264       -0.67666
H          1.06141       -0.03797       -2.08389
