96
speciation1495.ct
Na         1.83976        0.21815       -0.09658
Mg         4.45198        1.50616        1.26266
C          4.60146        4.57920        0.89987
C          2.58973        3.57038        0.12573
O          3.93619        3.35807        0.55930
C          3.84846        5.53167        1.85363
C          2.47392        4.41935       -1.17438
H          5.57659        4.32624        1.36471
H          4.85640        5.12446       -0.03349
H          2.13663        2.58319       -0.05092
H          1.95026        3.99582        0.92332
H          3.09444        4.02792       -2.00505
H          1.42112        4.43762       -1.52433
H          2.79039        5.46838       -1.01119
H          3.65094        5.03852        2.82304
H          4.46553        6.43927        2.02849
H          2.89609        5.89970        1.41944
H          2.07190        1.20820        2.46621
C          3.04622        2.02199        4.21738
C          3.07671        1.17781        2.94031
C          1.98824        1.47660        5.20205
H          4.02986        1.97229        4.72056
H          2.81975        3.07107        3.96406
H          0.97802        1.53474        4.73733
H          2.19266        0.41505        5.44496
C          1.97957        2.26252        6.51034
H          3.25446        0.16488        3.28826
H          2.95028        2.14033        7.04157
H          1.79926        3.33521        6.31358
H          1.17130        1.87979        7.17684
C          2.16455       -2.89340        2.76580
C          3.27756       -2.49177        3.46595
C          4.12501       -1.91560        2.54787
C          3.47854       -1.96920        1.33429
N          2.27869       -2.58452        1.45959
C          4.07786       -1.53599        0.03680
N          3.95596       -0.08411       -0.29211
C          4.13118        0.11475       -1.80069
H          3.45800       -2.62554        4.52530
H          1.31237       -3.40983        3.19169
H          5.11028       -1.51411        2.74721
H          3.48129       -2.14292       -0.65359
H          5.12663       -1.89391       -0.03598
C          3.19568       -0.77903       -2.65746
C          3.73102        1.54941       -2.12751
C          5.55072       -0.09573       -2.36046
H          2.14004       -0.71208       -2.32070
H          3.23576       -0.46999       -3.72439
H          3.52862       -1.83730       -2.67699
H          4.37190        2.24684       -1.55370
H          3.86678        1.78439       -3.20333
H          2.65666        1.69903       -1.90479
H          6.21879        0.74990       -2.18651
H          5.99006       -1.05672       -2.03130
H          5.53112       -0.09472       -3.47039
Mg         0.76592       -3.29154        0.40401
C          6.75826        1.37803        3.45961
C          7.55804        1.47317        1.30290
O          6.38970        1.44104        2.07986
C          7.36938        2.68971        3.98824
C          7.17670        1.23736       -0.09141
H          5.88455        1.10234        4.06652
H          7.47265        0.53650        3.64093
H          8.06487        2.46009        1.34079
H          8.25810        0.64403        1.57000
H          6.49568        2.05668       -0.40946
H          8.07455        1.21211       -0.74335
H          6.66931        0.25207       -0.09970
H          6.64448        3.51840        3.89966
H          7.66955        2.56868        5.04531
H          8.30279        2.96716        3.43758
C         -2.07634       -2.49140        1.46752
C         -2.97957       -3.34581        2.08282
C         -2.41612       -4.60739        2.06907
C         -1.20487       -4.45657        1.44140
N         -0.98250       -3.18185        1.10080
C         -0.19060       -5.49153        1.03861
N          0.33973       -5.12096       -0.29362
C         -0.48459       -5.50845       -1.47848
H         -3.94127       -3.07775        2.50031
H         -2.20661       -1.43103        1.31300
H         -2.83701       -5.52038        2.46410
H         -0.56672       -6.52935        1.12369
H          0.66114       -5.39406        1.74257
C         -1.92510       -4.95066       -1.44421
C          0.19907       -4.95721       -2.74680
C         -0.53781       -7.04747       -1.61165
H         -1.91667       -3.84365       -1.38129
H         -2.47416       -5.23424       -2.37140
H         -2.50572       -5.37117       -0.59987
H          1.23870       -5.33868       -2.83089
H         -0.35407       -5.27400       -3.65634
H          0.22747       -3.84808       -2.73064
H          0.48943       -7.46782       -1.67401
H         -1.06059       -7.51941       -0.75559
H         -1.09204       -7.34540       -2.52743
