81
speciation605.ct
Na         3.55748        0.16692        2.69469
Mg         2.18028        4.77144       -0.94263
C          4.38072        5.94924       -1.55652
C          2.63570        7.55924       -1.56384
O          3.02048        6.22220       -1.85777
C          4.78925        6.26605       -0.10848
C          3.29070        8.57374       -2.50982
H          4.50324        4.86255       -1.70992
H          5.07135        6.40166       -2.29671
H          1.53761        7.64959       -1.71636
H          2.82352        7.83804       -0.50936
H          2.99450        8.36304       -3.55833
H          2.96452        9.60103       -2.24216
H          4.39650        8.54571       -2.43097
H          4.04266        5.85429        0.60448
H          5.78021        5.81681        0.10869
H          4.88552        7.36059        0.04651
H          0.97251        6.71878        0.42692
C         -0.11861        5.21179        1.47044
C          0.57074        5.71268        0.19367
C          0.85893        5.05365        2.63909
H         -0.90129        5.94946        1.75703
H         -0.63760        4.25440        1.27744
H          1.65157        4.32337        2.37037
H          1.33465        6.03316        2.86690
C          0.12756        4.55919        3.88826
H         -0.21163        5.83850       -0.58393
H         -0.65925        5.28375        4.19127
H         -0.34711        3.57394        3.69148
H          0.84442        4.44523        4.72838
C          5.47692       -0.55633        0.43579
C          6.04261       -0.19363       -0.76401
C          5.50591        1.03303       -1.09637
C          4.61953        1.36278       -0.08955
N          4.61871        0.39614        0.85238
C          3.78163        2.62575       -0.03375
N          2.84790        2.83874       -1.18558
C          1.73504        1.85623       -1.28969
H          6.76339       -0.76724       -1.33174
H          5.68222       -1.46877        0.98222
H          5.73883        1.61200       -1.97397
H          3.23133        2.68667        0.93000
H          4.50538        3.45703       -0.00879
C          0.86212        1.83219       -0.02658
C          0.88891        2.30816       -2.48867
C          2.22631        0.41075       -1.54952
H          0.52064        2.84913        0.19152
H         -0.01776        1.16519       -0.16233
H          1.42545        1.44608        0.84842
H          1.52533        2.40192       -3.38528
H          0.07025        1.58498       -2.69613
H          0.44854        3.30980       -2.30093
H          2.99356        0.38329       -2.33172
H          2.64957       -0.06065       -0.64340
H          1.38112       -0.25318       -1.83540
Mg         3.94786        2.50994       -2.81104
C          1.38763       -0.09643       -5.48809
C          2.03601       -0.65443       -6.56652
C          3.39423       -0.42686       -6.39997
C          3.57891        0.25334       -5.25561
N          2.34423        0.48522       -4.63795
C          4.92288        0.71182       -4.68771
N          5.04781        2.18114       -4.43649
C          4.98776        3.04559       -5.66680
H          1.54739       -1.16273       -7.39191
H          0.32455       -0.09743       -5.31172
H          4.17565       -0.73768       -7.08212
H          5.75037        0.35356       -5.33022
H          5.05104        0.18682       -3.72254
C          3.60923        3.03764       -6.37829
C          5.25881        4.50217       -5.25724
C          6.07239        2.63391       -6.69535
H          2.78993        3.28798       -5.67327
H          3.59667        3.77960       -7.20728
H          3.38669        2.08731       -6.88629
H          6.24790        4.60023       -4.76614
H          5.25822        5.15970       -6.15900
H          4.46827        4.86987       -4.57006
H          7.08354        2.67550       -6.23805
H          5.90122        1.61250       -7.09329
H          6.05804        3.31010       -7.57801
