95
speciation1286.ct
Na         2.59598       -1.59058        1.46850
Mg         6.54742       -2.75738       -2.88345
C          0.48913       -3.44827        2.41808
C          1.86239       -2.82288        4.21948
O          1.76949       -2.97388        2.81688
C         -0.64297       -2.43750        2.64218
C          3.30752       -2.57324        4.60665
H          0.54157       -3.67484        1.33366
H          0.24469       -4.41463        2.91426
H          1.24716       -1.96953        4.57704
H          1.55189       -3.76328        4.73355
H          3.66209       -1.62779        4.14712
H          3.38591       -2.49239        5.71219
H          3.94719       -3.41399        4.26179
H         -0.42160       -1.48761        2.13111
H         -1.58992       -2.83225        2.21879
H         -0.81092       -2.24358        3.72091
H          5.43833       -4.91670       -4.24996
C          3.77411       -4.18423       -3.07378
C          5.26145       -4.48993       -3.24587
C          3.28633       -3.13293       -4.06492
H          3.16859       -5.10854       -3.19970
H          3.59833       -3.80922       -2.04180
H          2.21139       -2.98535       -3.86143
H          3.85266       -2.19159       -3.90269
C          3.39977       -3.53876       -5.53026
H          5.50910       -5.30593       -2.53446
H          4.45563       -3.69847       -5.82386
H          2.80969       -4.46052       -5.71529
H          2.99400       -2.72002       -6.16163
C          1.53634       -0.34877       -4.40240
C          2.62542        0.50034       -4.42373
C          3.16658        0.45692       -3.14314
C          2.35894       -0.38274       -2.40463
N          1.36105       -0.86670       -3.19852
C          2.52967       -0.92383       -1.03017
N          3.04809       -0.01958       -0.01650
C          2.25020        1.16593        0.44170
H          3.01363        1.03438       -5.28485
H          0.91622       -0.60086       -5.25937
H          4.05306        0.98441       -2.81809
H          3.32186       -1.68644       -1.12733
H          1.62175       -1.46733       -0.67881
C          0.89239        0.71372        0.97167
C          2.95472        1.85843        1.65106
C          2.05222        2.22987       -0.65571
H          1.06126        0.03842        1.83137
H          0.29609        1.57651        1.34542
H          0.31000        0.19942        0.19073
H          3.95381        2.20058        1.45137
H          2.37624        2.74581        1.99396
H          3.06414        1.16537        2.52218
H          3.00061        2.61497       -1.05532
H          1.43330        1.84220       -1.50156
H          1.48002        3.10816       -0.24760
Na        -0.05831       -2.32653       -2.59423
Mg         4.83892       -0.10362       -0.87871
H          9.14144       -2.37435       -3.63802
C          8.44777       -3.23331       -5.47741
C          8.44542       -3.18448       -3.95018
C          7.96682       -1.89968       -6.05526
H          9.48267       -3.43496       -5.84127
H          7.78847       -4.06030       -5.81580
H          6.95246       -1.68078       -5.66014
H          8.65813       -1.08398       -5.74563
C          7.90250       -1.94052       -7.58009
H          8.87010       -4.14114       -3.57370
H          8.90958       -2.11980       -8.01337
H          7.21312       -2.74575       -7.91160
H          7.52018       -0.96900       -7.95905
C          5.80655        2.58176       -0.19150
C          7.06215        2.83115        0.32774
C          7.88435        1.77650       -0.05941
C          7.08772        0.93513       -0.82100
N          5.85555        1.35715       -0.70938
C          7.35893       -0.30464       -1.65109
N          6.46829       -1.43856       -1.30824
C          7.05360       -2.28284       -0.20475
H          7.29601        3.65549        0.98242
H          4.92142        3.17242       -0.02025
H          8.91672        1.62774        0.20428
H          8.42910       -0.52565       -1.71344
H          7.08638       -0.01907       -2.69246
C          7.17466       -1.50766        1.11847
C          6.15419       -3.50362        0.07235
C          8.44205       -2.88249       -0.59348
H          6.17617       -1.13188        1.42800
H          7.56018       -2.17936        1.91507
H          7.88976       -0.67395        1.03913
H          6.08685       -4.13921       -0.81918
H          6.60980       -4.14373        0.86272
H          5.13453       -3.21823        0.39449
H          8.32605       -3.57669       -1.44442
H          9.23369       -2.15674       -0.84509
H          8.86893       -3.47207        0.24044
