66
speciation209.ct
Na         0.41048        1.09063        0.07604
Li        -0.48457        3.95459        1.68533
H          1.59583        5.57993        1.89310
C          2.25592        4.11300        0.45244
C          1.51097        4.48701        1.70856
C          1.73860        4.82614       -0.79844
H          3.33163        4.36916        0.58755
H          2.14329        3.02458        0.34688
H          1.83797        5.92534       -0.66381
H          2.37688        4.52253       -1.65700
C          0.28496        4.48374       -1.12623
H          1.98909        3.96568        2.56281
H          0.15877        3.39174       -1.28830
H         -0.38693        4.81196       -0.30775
H         -0.01208        5.01314       -2.05535
C         -3.32097        4.45093        1.62752
C         -4.57518        3.90796        1.74944
C         -4.40701        2.54351        1.80503
C         -3.06053        2.30837        1.66813
N         -2.38219        3.48335        1.60524
C         -2.37240        0.99047        1.61469
N         -1.64657        0.81200        0.31203
C         -2.37647        0.61924       -0.95994
H         -5.51244        4.44181        1.81461
H         -3.08147        5.50927        1.59270
H         -5.20609        1.81865        1.92921
H         -3.01683        0.11775        1.86622
H         -1.72745        1.06361        2.48918
C         -3.03096        1.91974       -1.41720
C         -1.36842        0.17599       -2.06645
C         -3.44068       -0.45938       -0.79384
H         -2.27114        2.70091       -1.63461
H         -3.62235        1.72706       -2.33160
H         -3.74196        2.29263       -0.67448
H         -0.77307       -0.71870       -1.79331
H         -1.89945       -0.11946       -2.99360
H         -0.63874        0.98224       -2.31045
H         -2.94563       -1.44748       -0.70545
H         -4.06655       -0.23577        0.08646
H         -4.13999       -0.47522       -1.65316
Li        -0.27532       -0.56803        0.07550
C          5.13293        1.92081        0.40474
C          5.94068        0.82044        0.57752
C          5.20896       -0.29876        0.21219
C          3.96155        0.09831       -0.14065
N          3.88069        1.49595       -0.06894
C          2.75113       -0.76124       -0.51458
N          1.60167       -0.57245        0.41997
C          1.62437       -0.96560        1.84526
H          6.95517        0.85008        0.96428
H          5.40116        2.94313        0.61831
H          5.60866       -1.30138        0.27491
H          3.00392       -1.83645       -0.62490
H          2.41980       -0.44599       -1.53110
C          2.56237       -0.07147        2.64193
C          0.22857       -0.77752        2.46878
C          1.99963       -2.42349        1.94981
H          2.19509        0.98261        2.62472
H          2.59891       -0.42203        3.69049
H          3.57363       -0.12524        2.24802
H         -0.58819       -1.31460        1.92704
H          0.18333       -1.10620        3.53373
H          0.06197        0.30476        2.44592
H          1.16167       -3.01435        1.52140
H          2.94270       -2.58109        1.40411
H          2.15850       -2.73300        3.00090
