66
speciation206.ct
Na         0.91134       -0.03659       -0.02830
Mg        -2.17312        1.65744       -0.70203
H         -2.49006        4.28332       -0.75051
C         -0.35165        3.98950       -1.05463
C         -1.66702        3.64369       -0.37028
C         -0.44290        3.78507       -2.56709
H         -0.10646        5.05146       -0.83475
H          0.45191        3.34279       -0.63742
H         -0.66661        2.71831       -2.78700
H         -1.25936        4.41601       -2.98164
C          0.86845        4.17638       -3.24382
H         -1.55076        3.85020        0.71206
H          1.09035        5.24967       -3.05816
H          1.70573        3.55994       -2.85253
H          0.78711        4.01629       -4.33918
C         -4.16041        0.88901       -2.91897
C         -4.45285       -0.34200       -3.48409
C         -3.65374       -1.27174       -2.84850
C         -2.92352       -0.56570       -1.91473
N         -3.22062        0.73730       -1.97284
C         -1.92702       -1.11079       -0.93859
N         -1.45866       -0.03659       -0.02830
C         -1.87945       -0.15721        1.38985
H         -5.16708       -0.53765       -4.27338
H         -4.61266        1.83429       -3.18216
H         -3.61929       -2.33802       -3.03239
H         -1.06456       -1.51440       -1.50694
H         -2.39938       -1.95051       -0.40019
C         -1.34644       -1.45591        2.04037
C         -1.26867        1.01974        2.16555
C         -3.41556       -0.07344        1.51325
H         -0.23994       -1.50569        1.95318
H         -1.61219       -1.47935        3.12012
H         -1.77408       -2.37360        1.59469
H         -1.66557        1.97467        1.78910
H         -1.52029        0.96138        3.24696
H         -0.16343        1.02722        2.06049
H         -3.78422        0.87421        1.06302
H         -3.91516       -0.91815        0.99748
H         -3.72460       -0.09493        2.58060
Mg         3.92726        1.49625       -1.04841
C          2.10396        2.60528        3.49575
C          2.69896        3.41734        2.55725
C          3.35439        2.59685        1.65096
C          3.16496        1.33119        2.02538
N          2.37194        1.26148        3.19344
C          3.74736        0.11451        1.36469
N          3.28134       -0.03659       -0.02830
C          3.73798       -1.27806       -0.70691
H          2.66397        4.49911        2.55082
H          1.52247        2.93898        4.34560
H          3.93935        2.92721        0.80376
H          3.43671       -0.75253        1.97728
H          4.85002        0.21830        1.40000
C          3.19777       -2.54170        0.00188
C          3.17780       -1.25552       -2.13828
C          5.28074       -1.35586       -0.79710
H          2.09044       -2.49981        0.08092
H          3.47476       -3.45459       -0.56853
H          3.62605       -2.66802        1.01634
H          3.55033       -0.36354       -2.68652
H          3.49098       -2.16375       -2.69951
H          2.06765       -1.21815       -2.12387
H          5.68671       -0.49319       -1.36718
H          5.75818       -1.37939        0.20295
H          5.58924       -2.29043       -1.31518
