81
speciation402.ct
Na         2.39689        0.13589        1.30481
Mg         2.56074        1.64209       -1.69528
C          2.62313        0.17458        4.47019
C          4.65004        0.93890        3.49782
O          3.43361        0.21362        3.29732
C          2.10250        1.53130        4.99339
C          5.65730        0.23804        4.42188
H          1.72338       -0.41953        4.22666
H          3.12389       -0.40762        5.27199
H          5.15619        1.05967        2.51893
H          4.45838        1.96707        3.86648
H          5.97063       -0.73521        3.99268
H          6.55639        0.88316        4.53467
H          5.24975        0.08114        5.44049
H          1.45941        1.98642        4.24132
H          1.48464        1.34128        5.89478
H          2.85158        2.30065        5.27890
H          4.04848        2.38473       -3.87849
C          3.28294        0.44534       -4.50417
C          3.83150        1.39514       -3.42921
C          1.95293        0.94156       -5.07201
H          4.02546        0.34841       -5.32862
H          3.14098       -0.56138       -4.06053
H          1.22402        1.05930       -4.24307
H          2.10730        1.92397       -5.56664
C          1.38065       -0.04597       -6.08931
H          4.79062        0.96949       -3.07026
H          2.07799       -0.18376       -6.94363
H          1.19660       -1.03286       -5.61046
H          0.41516        0.34033       -6.47836
C         -2.19691       -1.11482        0.33530
C         -3.07142       -0.06114        0.51145
C         -2.37954        1.09434        0.18669
C         -1.10116        0.70276       -0.18822
N         -1.00900       -0.63383       -0.07140
C          0.00562        1.56508       -0.75697
N          1.33780        1.65268       -0.06702
C          1.56271        2.90599        0.69081
H         -4.10440       -0.13527        0.83586
H         -2.41472       -2.16526        0.49532
H         -2.76935        2.09846        0.20331
H         -0.43901        2.56876       -0.90308
H          0.18829        1.19360       -1.77985
C          0.56455        2.94995        1.85267
C          2.99266        2.88510        1.24650
C          1.49405        4.18399       -0.17575
H          0.60266        1.97081        2.36747
H          0.79495        3.77708        2.55638
H         -0.47685        3.06204        1.49456
H          3.74458        2.80855        0.43171
H          3.21489        3.78516        1.85588
H          3.10655        2.03070        1.89711
H          2.23009        4.11655       -1.00469
H          0.49958        4.39003       -0.59912
H          1.74905        5.07049        0.44586
Mg         0.65863       -1.22937       -0.44288
C          6.72305       -1.50481       -1.26874
C          6.49559       -0.45232       -0.40850
C          5.13169       -0.24904       -0.35533
C          4.55328       -1.15314       -1.14355
N          5.50485       -1.97961       -1.77343
C          3.08523       -1.31412       -1.32010
N          2.41186       -1.54636       -0.04155
C          2.57113       -2.81859        0.67591
H          7.25036        0.09786        0.13428
H          7.68894       -1.91779       -1.51845
H          4.61468        0.49092        0.23908
H          2.83837       -2.10332       -2.05675
H          2.67651       -0.37599       -1.73368
C          3.96869       -2.90873        1.31593
C          1.52886       -2.83098        1.80970
C          2.31235       -4.02748       -0.24114
H          4.16318       -2.00731        1.93760
H          4.04883       -3.80904        1.95714
H          4.76387       -2.99489        0.55424
H          0.49867       -2.76568        1.39805
H          1.60863       -3.76181        2.41003
H          1.67962       -1.96614        2.48643
H          1.28476       -3.97685       -0.66357
H          3.03987       -4.06388       -1.07761
H          2.41755       -4.97374        0.32791
