110
speciation2651.ct
Na         1.33461        1.71291        0.25596
Mg         3.49241       -0.31682       -1.83905
C          2.00017       -2.11223       -3.26492
C          4.15725       -2.15164       -4.18874
O          3.16599       -1.34939       -3.53127
C          2.24723       -3.33931       -2.35671
C          3.74951       -2.57448       -5.62690
H          1.27739       -1.39718       -2.84612
H          1.45473       -2.41906       -4.17711
H          5.12956       -1.63170       -4.25873
H          4.43762       -3.03236       -3.58748
H          4.17027       -1.88521       -6.38451
H          4.11198       -3.60490       -5.82917
H          2.66070       -2.59855       -5.81872
H          2.80224       -3.04882       -1.43598
H          1.27589       -3.79741       -2.08535
H          2.82398       -4.13627       -2.86398
H         -0.76280        6.87583       -1.21137
C         -0.99057        8.84981       -2.00420
C         -0.10648        7.65001       -1.66819
C         -2.11113        8.46239       -2.97395
H         -1.44956        9.22673       -1.06073
H         -0.36293        9.65488       -2.43893
H         -1.66698        8.07748       -3.91452
H         -2.74419        7.66553       -2.52155
C         -3.00199        9.66280       -3.29299
H          0.63106        7.96073       -0.89926
H         -3.49425       10.04067       -2.37111
H         -2.40024       10.47916       -3.74466
H         -3.79064        9.36036       -4.01469
C         -1.68217        0.71650        0.68730
C         -2.28615       -0.52770        0.66392
C         -1.28236       -1.44600        0.43376
C         -0.11228       -0.72536        0.32751
N         -0.36000        0.58558        0.47531
C          1.25235       -1.28027        0.06508
N          2.31982       -0.25049       -0.02072
C          3.18145       -0.23953        1.20455
H         -3.33778       -0.74223        0.78480
H         -2.18888        1.66015        0.83248
H         -1.39105       -2.51823        0.33873
H          1.10431       -1.76606       -0.87753
H          1.46387       -2.09785        0.77665
C          4.09145       -1.48454        1.27802
C          4.06835        1.00597        1.14778
C          2.32720       -0.15539        2.49741
H          4.70798       -1.57450        0.35908
H          4.77177       -1.41122        2.15593
H          3.51439       -2.42112        1.39834
H          3.47401        1.92953        1.05578
H          4.71781        1.08551        2.04702
H          4.72605        0.95364        0.28205
H          1.56772        0.63303        2.40735
H          1.77535       -1.09373        2.70522
H          2.96806        0.04684        3.38491
Na         3.77435        4.18208       -0.06565
Mg         1.06485        6.60257       -3.16825
C          4.76525        1.89582       -3.15520
C          6.27801        0.67200       -1.78620
O          4.92656        0.99528       -2.07254
C          5.33107        1.42365       -4.49265
C          7.05760        1.88047       -1.24127
H          3.69633        1.99068       -3.29937
H          5.10655        2.92502       -2.90056
H          6.27711       -0.09904       -0.99011
H          6.78861        0.21180       -2.65217
H          6.55929        2.30293       -0.34291
H          8.08356        1.56448       -0.96167
H          7.14904        2.68220       -2.00302
H          4.92709        0.43042       -4.72898
H          5.00866        2.10827       -5.30318
H          6.43914        1.39925       -4.48294
H          2.69101        6.46659       -5.19208
C          3.81029        7.91201       -4.02999
C          2.48294        7.33646       -4.53215
C          4.59603        6.92864       -3.15483
H          4.42605        8.19061       -4.91500
H          3.59714        8.82950       -3.44356
H          3.98871        6.67491       -2.25943
H          4.81497        5.99376       -3.71633
C          5.92109        7.54919       -2.70046
H          1.96770        8.11002       -5.13729
H          6.57890        7.74996       -3.57474
H          5.73967        8.50498       -2.16221
H          6.45080        6.85504       -2.01407
C          1.42683        3.84911       -4.29299
C          1.42268        2.52951       -3.90407
C          1.26005        2.51926       -2.53382
C          1.16894        3.84487       -2.14733
N          1.26037        4.64652       -3.22031
C          0.86918        4.38407       -0.78956
N          1.68995        3.84276        0.30564
C          1.32943        4.42412        1.64181
H          1.52777        1.66018       -4.54513
H          1.51576        4.20210       -5.31078
H          1.20747        1.63672       -1.91955
H         -0.19018        4.12581       -0.62773
H          1.00344        5.47423       -0.85492
C         -0.17726        4.23491        1.96049
C          2.13258        3.71117        2.73367
C          1.69340        5.92277        1.72546
H         -0.45130        3.16178        1.88279
H         -0.40998        4.58620        2.98428
H         -0.82626        4.82378        1.28048
H          3.22569        3.81006        2.56365
H          1.89378        4.12732        3.73734
H          1.87290        2.64915        2.76438
H          2.78189        6.06988        1.55220
H          1.12950        6.54038        1.00382
H          1.44602        6.31918        2.73489
