83
speciation570.ct
Na         3.06266        0.29621        2.91692
Mg         2.64163        4.49513       -0.39607
C          0.86505       -0.47014        5.13853
C          1.60908        1.75360        5.45535
O          1.89573        0.47370        4.91421
C          1.25516       -1.81502        4.54346
C          0.29872        2.39053        4.97286
H          0.71554       -0.61762        6.23165
H         -0.08195       -0.17479        4.64176
H          1.63404        1.70894        6.56687
H          2.43933        2.42682        5.15632
H         -0.58561        1.83501        5.34952
H          0.22389        3.42151        5.37773
H          0.27369        2.43340        3.86434
H          2.19743       -2.18522        4.99843
H          0.44694       -2.55321        4.73931
H          1.38757       -1.72055        3.44461
C          4.92177       -0.99512        0.51012
C          5.48800       -0.81445       -0.72773
C          5.15037        0.45776       -1.12269
C          4.38245        0.99249       -0.10785
N          4.25474        0.11490        0.87659
C          3.76754        2.32937       -0.01981
N          2.89831        2.67235       -1.14198
C          1.62151        1.99130       -1.39532
H          6.08226       -1.53151       -1.28449
H          4.98595       -1.89098        1.11237
H          5.42622        0.91604       -2.03972
H          3.22927        2.45975        0.94182
H          4.60401        3.05610       -0.02365
C          0.72189        2.01190       -0.15076
C          0.93697        2.77627       -2.52924
C          1.85727        0.55091       -1.89615
H          0.55261        3.06051        0.17783
H         -0.26083        1.54384       -0.37229
H          1.18792        1.44997        0.68501
H          1.58103        2.78868       -3.43682
H         -0.03902        2.32029       -2.80072
H          0.76145        3.83036       -2.22426
H          2.57177        0.55226       -2.74858
H          2.25840       -0.10389       -1.09961
H          0.90839        0.09589       -2.25106
Na         4.20831        2.28076       -3.07782
C          6.44078        0.87023       -4.73442
C          6.07171        3.05035       -5.55005
O          5.49067        1.89744       -4.97282
C          7.59895        1.25945       -3.79709
C          5.00241        4.11310       -5.74996
H          5.88747        0.03138       -4.26323
H          6.83620        0.47038       -5.69454
H          6.85202        3.50077       -4.90286
H          6.49079        2.79836       -6.55084
H          4.59329        4.42832       -4.76624
H          5.44843        4.99947       -6.25018
H          4.17833        3.71976       -6.38107
H          7.23175        1.72161       -2.86047
H          8.18383        0.35182       -3.53939
H          8.29383        1.97331       -4.28065
C          0.58627        6.83648       -0.97312
C          0.83401        8.20038       -0.98210
C          2.18251        8.36282       -0.72739
C          2.67759        7.09831       -0.57907
N          1.73148        6.17065       -0.71539
C          4.05296        6.65500       -0.20824
N          3.89141        5.58178        0.78387
C          3.58348        5.98631        2.19363
H          0.11184        8.99051       -1.13579
H         -0.37640        6.36452       -1.11264
H          2.72796        9.29432       -0.63374
H          4.72749        7.47356        0.09460
H          4.48658        6.17357       -1.10577
C          2.25755        6.76849        2.34403
C          3.45734        4.70857        3.04148
C          4.73356        6.83883        2.77525
H          1.40391        6.18438        1.94073
H          2.04777        6.97663        3.41623
H          2.30514        7.75979        1.85621
H          4.39457        4.11621        3.00547
H          3.25297        4.96618        4.10668
H          2.61861        4.07727        2.67872
H          5.69722        6.29134        2.71029
H          4.83827        7.80531        2.24183
H          4.53988        7.08827        3.84144
