110
speciation1923.ct
Na         0.42297        0.17614       -0.48986
Mg         2.18669        4.69183       -1.19410
C         -2.08320        0.16091       -1.39225
C         -0.90158       -1.04303       -3.07744
O         -0.87400        0.00861       -2.15530
C         -2.87662       -1.04206       -0.90539
C         -2.03929       -0.95003       -4.09611
H         -1.72876        0.49908       -0.40542
H         -2.76096        0.93072       -1.83153
H          0.02342       -0.97930       -3.68319
H         -0.93244       -1.99730       -2.54074
H         -1.95681       -0.03145       -4.71005
H         -1.97392       -1.84661       -4.74171
H         -3.03689       -0.95206       -3.62973
H         -2.21006       -1.79639       -0.52688
H         -3.50516       -0.72254       -0.04186
H         -3.52678       -1.48874       -1.66201
H          4.54804        5.45496       -0.39682
C          4.05274        7.42017       -1.10423
C          4.01803        5.89234       -1.26997
C          5.45110        8.02147       -1.02337
H          3.60391        7.90348       -1.98028
H          3.49143        7.68810       -0.18203
H          5.98573        7.63157       -0.13202
H          6.02334        7.75955       -1.93962
C          5.33364        9.54735       -0.93339
H          4.54329        5.59588       -2.20021
H          4.81212        9.94779       -1.83196
H          4.75029        9.83933       -0.03297
H          6.33919       10.00904       -0.87785
C         -2.28945        2.86287       -0.00688
C         -3.16654        3.79652       -0.51344
C         -2.62422        4.23173       -1.68717
C         -1.38131        3.63963       -1.80720
N         -1.20873        2.65225       -0.84009
C         -0.57022        4.04226       -3.02405
N          0.54110        5.03540       -2.76507
C          0.13802        6.48593       -2.97598
H         -4.13841        4.12075       -0.16589
H         -2.51652        2.31111        0.88652
H         -3.09837        4.90626       -2.39615
H         -1.25112        4.44841       -3.78616
H         -0.27910        3.16929       -3.61322
C         -0.94189        7.01456       -1.99139
C          1.35412        7.32024       -2.74077
C         -0.33233        6.81187       -4.41875
H         -0.63959        6.91556       -0.94533
H         -1.10867        8.09717       -2.16255
H         -1.91169        6.57015       -2.15285
H          2.17141        7.01548       -3.43010
H          1.16227        8.41256       -2.87176
H          1.63872        7.16008       -1.70036
H          0.44055        6.54827       -5.17013
H         -1.29725        6.35244       -4.69979
H         -0.50009        7.91307       -4.51740
Na         1.64942        4.65957       -4.56881
Mg         4.32764        2.52107       -2.89489
C         -0.25786       -1.64286        1.75267
C          0.31759       -2.92064       -0.19232
O         -0.16924       -1.68339        0.33784
C          0.95867       -2.18732        2.50719
C         -0.73345       -4.04433       -0.11850
H         -0.35837       -0.57101        2.02053
H         -1.19358       -2.13927        2.07953
H          0.58542       -2.78197       -1.25746
H          1.27412       -3.24977        0.25428
H         -1.64209       -3.81104       -0.70709
H         -0.32230       -4.98302       -0.54277
H         -1.02990       -4.23875        0.93224
H          1.88518       -1.72095        2.11688
H          0.85951       -1.95740        3.58450
H          1.02075       -3.29264        2.41011
H          2.12782        5.83912        1.44859
C         -0.01626        5.51031        1.47520
C          1.30414        5.78055        0.71139
C         -0.03853        4.12743        2.06754
H         -0.19480        6.25402        2.28134
H         -0.86800        5.57744        0.76300
H         -1.02172        3.86984        2.51196
H          0.05982        3.54796        1.19422
C          1.08903        3.82262        3.05618
H          1.19750        6.83461        0.38623
H          2.08731        4.09104        2.65926
H          0.91213        4.36865        4.00183
H          1.12421        2.73092        3.25321
C          4.15414       -1.08100        0.56642
C          5.54045       -0.88102        0.56769
C          5.72832        0.45366        0.35691
C          4.48328        1.02645        0.23162
N          3.45735        0.07055        0.38154
C          4.26801        2.46285       -0.15127
N          3.30095        2.64349       -1.25293
C          2.21412        1.65017       -1.32880
H          6.33444       -1.61923        0.63865
H          3.72709       -2.07585        0.61192
H          6.68070        0.96248        0.24702
H          3.97439        3.02967        0.75499
H          5.23568        2.93845       -0.43125
C          1.53106        1.89716        0.12715
C          1.67812        2.06827       -2.68776
C          2.43351        0.08472       -1.80843
H          2.04682        2.46693        0.90827
H          0.49366        1.94639        0.22467
H          1.58891        1.02762        0.81487
H          2.43995        1.79020       -3.46690
H          0.77065        1.52169       -3.01483
H          1.67839        3.12202       -2.80432
H          3.41459       -0.11620       -2.28350
H          2.18605       -0.75949       -1.10928
H          1.66078       -0.33178       -2.47190
