53
speciation834.ct
Na         5.41866       -4.27620       -0.58862
C          2.72224       -1.67902       -3.71508
C          2.94698       -3.03215       -3.58752
C          3.34325       -3.24436       -2.28735
C          3.35607       -2.00667       -1.66971
N          2.96268       -1.04803       -2.55024
C          3.72115       -1.78268       -0.21139
N          5.08976       -2.26500        0.07186
C          5.49382       -2.30347        1.50252
H          2.82697       -3.78467       -4.35537
H          2.39068       -1.17721       -4.61513
H          3.58614       -4.19972       -1.84881
H          2.97863       -2.33860        0.38358
H          3.64229       -0.69849        0.01288
C          4.65774       -3.33247        2.29829
C          6.96781       -2.75459        1.56246
C          5.38919       -0.91627        2.16706
H          4.72301       -4.33743        1.82855
H          5.03440       -3.41792        3.34178
H          3.59157       -3.03986        2.36608
H          7.62410       -2.03897        1.02240
H          7.32292       -2.81968        2.61550
H          7.09658       -3.75823        1.10227
H          5.99968       -0.17395        1.61045
H          4.33790       -0.56658        2.20436
H          5.76172       -0.96088        3.21432
Na         4.74592        1.09730       -3.73814
Mg         2.70293        0.91941       -2.40264
C          1.25927        3.52214       -2.19094
C          1.45245        4.88486       -2.12105
C          2.81385        5.09376       -2.14486
C          3.40848        3.84841       -2.23123
N          2.44318        2.88686       -2.25505
C          4.92615        3.64503       -2.21794
N          5.50783        3.06934       -3.45412
C          7.00900        3.00343       -3.48461
H          0.68634        5.64435       -2.05292
H          0.30162        3.01981       -2.19250
H          3.31725        6.05075       -2.09583
H          5.37885        4.64206       -2.04986
H          5.15928        3.00347       -1.34736
C          7.57948        2.24227       -2.26498
C          7.45629        2.24393       -4.75324
C          7.65129        4.41185       -3.55154
H          7.15287        1.21856       -2.21156
H          8.68688        2.15339       -2.34062
H          7.37228        2.77569       -1.31551
H          7.13940        2.77757       -5.67414
H          8.56798        2.15333       -4.78629
H          7.03795        1.21645       -4.77340
H          7.28838        4.96617       -4.44318
H          7.44701        5.01491       -2.64595
H          8.76002        4.33111       -3.63291
