110
speciation1957.ct
Na         1.06573        0.13418        0.33084
Mg         2.70362       -4.92425       -2.95751
C         -0.91164        1.97370        1.46905
C          1.15090        2.20205        2.63742
O          0.26961        1.33728        1.92824
C         -0.68088        3.24638        0.64201
C          0.58488        2.65786        3.99393
H         -1.42573        1.24201        0.81196
H         -1.61777        2.16207        2.30620
H          2.06782        1.62862        2.86391
H          1.47528        3.07133        2.03062
H          0.38462        1.78206        4.64368
H          1.31959        3.31904        4.50255
H         -0.34905        3.24635        3.87620
H          0.05297        3.04623       -0.16448
H         -1.63865        3.57403        0.18749
H         -0.32078        4.08394        1.27756
H          3.78408       -6.83232       -4.40997
C          3.21399       -8.09284       -2.77072
C          3.71344       -6.74521       -3.30520
C          3.19272       -8.11482       -1.24207
H          2.20492       -8.31853       -3.18047
H          3.91607       -8.88134       -3.12647
H          4.21414       -7.89054       -0.86679
H          2.48876       -7.34331       -0.86280
C          2.77800       -9.48546       -0.70442
H          4.72611       -6.54474       -2.90438
H          1.73679       -9.72730       -1.00546
H          3.45932      -10.27769       -1.08434
H          2.83605       -9.47958        0.40498
C         -0.05557       -5.12317       -3.35293
C         -1.28797       -4.55619       -3.25145
C         -1.08079       -3.36839       -2.58342
C          0.21681       -3.25887       -2.29147
N          0.87883       -4.34247       -2.78189
C          0.72494       -2.04446       -1.54579
N          0.04988       -1.84583       -0.22293
C          0.39244       -2.83199        0.87544
H         -2.21589       -4.94093       -3.63162
H          0.13844       -6.06160       -3.84955
H         -1.74458       -2.62263       -2.40272
H          0.45864       -1.15737       -2.15627
H          1.82148       -2.03601       -1.44696
C          1.90721       -3.13959        0.91319
C          0.02539       -2.25260        2.25452
C         -0.38528       -4.16305        0.72468
H          2.45244       -2.20394        1.13320
H          2.14901       -3.85075        1.73028
H          2.26594       -3.60430       -0.02458
H         -1.06048       -2.08792        2.35600
H          0.32343       -2.95380        3.06879
H          0.54491       -1.28999        2.44273
H         -1.47536       -3.99556        0.84492
H         -0.20568       -4.66817       -0.23605
H         -0.07025       -4.87998        1.51690
Na        -2.23971       -1.99664       -0.67826
Mg        -3.96159       -5.02245       -2.79820
C          4.02929       -0.17586       -0.46905
C          3.15760        1.94817       -1.08267
O          2.86795        0.58066       -0.80804
C          4.85285        0.37747        0.70332
C          4.01291        2.14477       -2.35024
H          3.69874       -1.18527       -0.19981
H          4.67008       -0.35595       -1.35777
H          2.20029        2.47790       -1.25681
H          3.62385        2.45026       -0.21181
H          3.46755        1.78765       -3.24910
H          4.24225        3.22362       -2.47849
H          4.98646        1.61938       -2.28950
H          4.19727        0.56738        1.57795
H          5.63663       -0.35518        0.98865
H          5.38081        1.31178        0.41773
H          3.41196       -2.47331       -3.72271
C          5.08992       -3.68797       -4.38327
C          3.99502       -3.35445       -3.37402
C          4.51911       -4.01199       -5.76898
H          5.78040       -2.82074       -4.46704
H          5.65972       -4.55970       -3.99932
H          3.80405       -4.85700       -5.69404
H          3.97899       -3.12837       -6.17543
C          5.63710       -4.39991       -6.73637
H          4.45523       -3.10176       -2.39746
H          6.34708       -3.55554       -6.86991
H          6.19183       -5.28106       -6.34807
H          5.20707       -4.66273       -7.72571
C         -3.57284       -1.45970        1.75312
C         -3.81078       -2.50831        2.59353
C         -4.28892       -3.55671        1.81086
C         -4.35793       -3.06777        0.51673
N         -3.82379       -1.85566        0.50925
C         -4.62162       -3.81592       -0.75750
N         -3.82014       -3.28771       -1.88899
C         -4.41904       -2.38584       -2.93439
H         -3.54356       -2.53819        3.63989
H         -3.06126       -0.53446        1.98595
H         -4.46524       -4.57307        2.14015
H         -5.70695       -3.85176       -0.97025
H         -4.32442       -4.87226       -0.58549
C         -4.61179       -0.98938       -2.34838
C         -3.48618       -2.23544       -4.19019
C         -5.73318       -2.94524       -3.51571
H         -3.63464       -0.61572       -1.96958
H         -4.96609       -0.28248       -3.12710
H         -5.34301       -1.01724       -1.51899
H         -3.28063       -3.21531       -4.67235
H         -3.96409       -1.60265       -4.96599
H         -2.53081       -1.70452       -4.01938
H         -5.55113       -3.94198       -3.98320
H         -6.53773       -3.03089       -2.76968
H         -6.10595       -2.27020       -4.31791
