81
Fixed geometry for speciation786.xyz
Na 1.61758 0.82990 0.57108
Mg 6.04960 2.48388 5.13985
C 8.41008 2.63766 6.32379
C 8.03618 4.70769 5.28542
O 7.78298 3.30482 5.24396
C 7.94912 3.11916 7.70504
C 7.47632 5.43859 4.06973
H 8.12936 1.57026 6.23250
H 9.51958 2.66404 6.23400
H 7.60607 5.19256 6.18637
H 9.13577 4.87851 5.25414
H 6.38276 5.43996 4.06839
H 7.78048 6.50709 4.10904
H 7.83464 4.98508 3.12506
H 6.84759 3.21660 7.71766
H 8.27287 2.39863 8.48513
H 8.38271 4.10743 7.95690
H 1.01318 1.39885 2.40852
C 0.60481 3.52868 2.41039
C 1.53184 2.33796 2.67240
C -0.78308 3.46252 3.03233
H 0.99687 4.41060 2.92027
H 0.55562 3.70658 1.31681
H -0.70598 3.34600 4.13872
H -1.25855 4.44711 2.81919
C -1.66468 2.38085 2.45402
H 1.64861 2.23683 3.77516
H -1.71053 2.47965 1.35118
H -1.28350 1.37678 2.73014
H -2.68648 2.50676 2.87046
C 4.37463 4.39776 4.91476
C 3.54730 5.19572 4.19338
C 3.36661 4.55216 2.97728
C 3.98458 3.30460 3.05771
N 4.70409 3.31626 4.20474
C 3.93610 2.03038 1.90342
N 3.20550 2.26580 0.52762
C 3.76954 1.59974 -0.71820
H 3.16401 6.15145 4.52600
H 4.78004 4.60874 5.89891
H 2.80415 4.95921 2.15557
H 4.22236 0.88034 2.15141
H 3.26752 1.29407 2.45666
C 4.32141 0.19171 -0.39302
C 2.66801 1.40758 -1.81752
C 4.87186 2.41782 -1.43534
H 3.53987 -0.43039 0.09203
H 4.65362 -0.33780 -1.31582
H 5.20236 0.25719 0.27286
H 2.29684 2.37744 -2.20863
H 3.08383 0.85665 -2.69918
H 1.79162 0.80727 -1.50871
H 4.46703 3.36159 -1.85821
H 5.71841 2.65639 -0.78635
H 5.26978 1.83860 -2.30774
Mg 4.50850 2.28507 1.56104
C 7.38394 1.71424 1.51717
C 8.49917 1.06137 1.88828
C 8.20963 0.34878 3.02854
C 6.87755 0.59332 3.32130
N 6.35795 1.42411 2.35176
C 6.14344 -0.15523 4.48635
N 5.70420 0.73644 5.57174
C 4.74584 0.28455 6.62038
H 9.46559 1.09598 1.36215
H 7.28481 2.31713 0.64760
H 8.90342 -0.29306 3.57125
H 5.30907 -0.75699 4.07728
H 6.87669 -0.86177 4.93594
C 5.29940 -0.92605 7.39536
C 4.53453 1.41499 7.66124
C 3.35783 -0.04475 6.03837
H 6.26829 -0.66299 7.87541
H 4.59596 -1.22432 8.20798
H 5.44706 -1.79504 6.72899
H 4.13384 2.33725 7.18829
H 3.81065 1.10182 8.44966
H 5.47545 1.65001 8.18971
H 2.90131 0.85738 5.57746
H 3.40824 -0.85545 5.28961
H 2.67446 -0.38613 6.85175
