95
speciation1195.ct
Na        -1.59254       -3.44660        3.14262
Mg         1.40481       -0.82186       -2.38179
C         -3.57904       -5.62141        3.56262
C         -4.94319       -3.72906        3.46186
O         -3.66381       -4.22794        3.83671
C         -3.70438       -5.98746        2.06890
C         -5.08597       -2.24818        3.76664
H         -2.57484       -5.95544        3.89703
H         -4.31138       -6.19448        4.17254
H         -5.15771       -3.84442        2.38051
H         -5.72191       -4.25479        4.06146
H         -4.44132       -1.65392        3.08660
H         -6.14551       -1.95219        3.59258
H         -4.82682       -2.03639        4.82320
H         -2.97664       -5.40893        1.46132
H         -3.50716       -7.07060        1.93121
H         -4.72831       -5.81227        1.67795
H          0.01371        1.04130       -0.73845
C          0.22499        2.62806       -2.19442
C          0.68663        1.25734       -1.58881
C         -1.17020        2.72252       -2.84707
H          0.24955        3.39909       -1.38583
H          0.96556        2.95588       -2.95656
H         -1.29327        3.75885       -3.24256
H         -1.23618        2.03062       -3.70658
C         -2.33498        2.48811       -1.88435
H          1.69228        1.49124       -1.16999
H         -2.31353        1.45753       -1.48213
H         -2.30790        3.21781       -1.04563
H         -3.29462        2.63507       -2.42925
C          3.54097       -2.45629       -0.91893
C          3.88659       -3.38811        0.04933
C          2.73991       -3.65102        0.76895
C          1.76378       -2.83586        0.24791
N          2.22394       -2.12104       -0.84065
C          0.41505       -2.76194        0.93558
N          0.52337       -2.64843        2.43358
C          1.25206       -1.40965        2.94018
H          4.85436       -3.83510        0.23707
H          4.22549       -2.06446       -1.64322
H          2.66074       -4.30910        1.61602
H         -0.09260       -3.73354        0.73450
H         -0.22450       -1.97272        0.49682
C          0.51821       -0.12278        2.51864
C          1.36068       -1.48827        4.47314
C          2.74011       -1.23832        2.47206
H         -0.52017       -0.11152        2.89604
H          1.05494        0.77295        2.90736
H          0.51534       -0.02785        1.41403
H          1.97440       -2.37084        4.76462
H          1.88334       -0.58570        4.87195
H          0.36927       -1.55736        4.95423
H          3.37008       -2.11186        2.74382
H          2.84828       -0.98951        1.40188
H          3.21575       -0.35922        2.96089
Na         0.60962       -0.88169       -5.50558
Mg         2.17851       -2.52991       -7.13065
H          2.93613       -0.59250       -4.51978
C          3.75466        1.31813       -3.95557
C          2.65781        0.23449       -3.84473
C          5.15825        0.87238       -3.53077
H          3.81342        1.64307       -5.02238
H          3.45834        2.21088       -3.35932
H          5.85372        1.73334       -3.66408
H          5.15141        0.58298       -2.46100
C          5.69693       -0.28662       -4.38104
H          1.75541        0.72149       -4.27368
H          5.04522       -1.17089       -4.25485
H          5.72829       -0.00479       -5.45500
H          6.70809       -0.55967       -4.04425
C          4.40262       -3.48332       -5.44251
C          4.69007       -4.00528       -4.19584
C          3.50397       -4.01821       -3.50276
C          2.53933       -3.46522       -4.33200
N          3.08608       -3.16447       -5.52323
C          1.08020       -3.44764       -4.00375
N          0.40017       -2.13049       -3.77918
C         -1.08829       -2.34440       -3.70655
H          5.64499       -4.36373       -3.83999
H          5.11150       -3.39595       -6.24446
H          3.34124       -4.42198       -2.51691
H          0.97436       -4.04976       -3.08416
H          0.61056       -4.01580       -4.83280
C         -1.50608       -3.47832       -2.72665
C         -1.75706       -1.04682       -3.23583
C         -1.67293       -2.67476       -5.11293
H         -1.11340       -3.28145       -1.71065
H         -2.61463       -3.55528       -2.67145
H         -1.16391       -4.48291       -3.06522
H         -1.54206       -0.22700       -3.94854
H         -2.86247       -1.17922       -3.19107
H         -1.39809       -0.77049       -2.22579
H         -1.41927       -1.88391       -5.84907
H         -1.32657       -3.64240       -5.52556
H         -2.78028       -2.75422       -5.07457
