81
speciation610.ct
Na         1.03601        0.00968       -0.09279
Mg        -2.18760        1.87643        0.23040
C         -0.28428        3.66180       -0.35378
C         -2.47468        4.54401       -0.71368
O         -1.62505        3.40594       -0.75566
C         -0.11431        4.36795        1.00360
C         -2.16008        5.55619       -1.81622
H          0.20176        2.66974       -0.25765
H          0.27006        4.19359       -1.15256
H         -3.51946        4.20000       -0.86630
H         -2.44883        5.06045        0.25844
H         -2.26248        5.08511       -2.81505
H         -2.86924        6.40927       -1.74559
H         -1.13420        5.96300       -1.70058
H         -0.67725        3.83192        1.79335
H          0.96081        4.38328        1.27597
H         -0.44343        5.42697        0.95702
H         -3.91998        1.54708        2.26837
C         -4.31424        3.63372        2.02266
C         -3.33913        2.45980        2.02048
C         -5.03755        3.76218        3.37089
H         -3.75846        4.57125        1.85162
H         -5.05836        3.48433        1.21182
H         -5.61454        2.83570        3.58360
H         -4.29501        3.91108        4.18745
C         -5.99528        4.95061        3.35919
H         -2.59534        2.64070        2.82638
H         -5.43589        5.89293        3.17516
H         -6.75820        4.81872        2.56273
H         -6.51168        5.03000        4.33886
C         -0.68788       -3.85211       -2.57291
C          0.54112       -3.26847       -2.37851
C          0.30774       -1.96561       -1.98313
C         -1.00210       -1.74589       -1.91681
N         -1.70426       -2.90907       -2.30368
C         -1.66795       -0.43813       -1.48131
N         -1.33399        0.00968       -0.09279
C         -1.71097       -0.95937        1.00854
H          1.50726       -3.74963       -2.50650
H         -0.84538       -4.88495       -2.86950
H          1.06634       -1.27329       -1.73728
H         -2.76620       -0.53269       -1.58843
H         -1.34175        0.35005       -2.18064
C         -0.91290       -2.29290        0.98923
C         -1.34776       -0.33680        2.36794
C         -3.22032       -1.30022        0.98845
H          0.18163       -2.10386        0.97474
H         -1.13722       -2.89145        1.90044
H         -1.19334       -2.97362        0.17398
H         -1.88394        0.58528        2.55138
H         -1.61432       -1.02214        3.20487
H         -0.26171       -0.11491        2.42830
H         -3.84376       -0.38986        1.06594
H         -3.49970       -1.83997        0.05968
H         -3.48016       -1.97808        1.83164
Mg         3.97665       -0.93416        1.51681
C          2.41257        0.61246       -4.34341
C          3.62694        0.13384       -4.77565
C          4.25510       -0.45221       -3.68668
C          3.45175       -0.34552       -2.62334
N          2.25477        0.31705       -2.97928
C          3.78478       -0.87038       -1.22780
N          3.40601        0.00968       -0.09279
C          4.03323        1.37084       -0.03194
H          4.00862        0.21292       -5.78666
H          1.68498        1.13383       -4.95234
H          5.22681       -0.92581       -3.70188
H          4.85365       -1.16423       -1.17260
H          3.21567       -1.81079       -1.09628
C          3.69503        2.28044       -1.23912
C          3.48058        2.08499        1.21935
C          5.56786        1.27153        0.09692
H          2.59727        2.35759       -1.38695
H          4.08204        3.30966       -1.07231
H          4.19078        1.95475       -2.17225
H          3.71500        1.50791        2.13356
H          3.92956        3.09781        1.31726
H          2.38074        2.19887        1.13799
H          5.85384        0.74108        1.02869
H          6.01491        0.74146       -0.76971
H          6.02176        2.28806        0.12230
