110
speciation2502.ct
Na         2.94514        0.07061        3.22114
Mg         2.00388        4.70453       -0.58865
C         -0.48181        5.61650       -2.16682
C          1.41294        5.23274       -3.57922
O          0.91983        5.31727       -2.24078
C         -1.44786        4.68658       -2.94126
C          1.17970        6.49791       -4.43428
H         -0.79337        5.55909       -1.11486
H         -0.65965        6.66895       -2.47177
H          2.50694        5.06192       -3.53203
H          0.98579        4.34911       -4.10532
H          1.62839        7.39261       -3.96914
H          1.64068        6.36778       -5.43595
H          0.10032        6.69587       -4.60300
H         -1.43997        3.64754       -2.56600
H         -2.48961        5.04842       -2.80495
H         -1.25203        4.68676       -4.03106
H         -0.25397        4.32311        0.91426
C         -0.14944        6.26902        1.62252
C          0.58416        4.99317        1.15773
C         -1.10958        5.93949        2.79290
H          0.57854        7.04806        1.92720
H         -0.75998        6.66791        0.78659
H         -1.82096        5.14249        2.47942
H         -0.53144        5.56488        3.66541
C         -1.94240        7.14378        3.23201
H          1.14967        4.59039        2.02168
H         -1.28874        7.95419        3.61433
H         -2.55020        7.52571        2.38399
H         -2.63915        6.83823        4.04425
C          4.88492       -1.12743        1.15477
C          5.52983       -0.94056       -0.04560
C          5.13486        0.29177       -0.51338
C          4.25965        0.81891        0.42288
N          4.11417       -0.05884        1.44200
C          3.57214        2.17675        0.38180
N          2.72662        2.52966       -0.81334
C          1.59424        1.56962       -0.98215
H          6.21318       -1.62930       -0.52691
H          4.97549       -1.99923        1.78870
H          5.45913        0.72684       -1.43600
H          2.99893        2.34097        1.31388
H          4.39745        2.84720        0.46243
C          0.69605        1.47809        0.25730
C          0.77698        2.10198       -2.12577
C          2.03250        0.13016       -1.35356
H          0.35488        2.46668        0.51346
H         -0.19638        0.85149        0.05515
H          1.22365        1.05047        1.13098
H          1.37623        2.14164       -3.04751
H         -0.13799        1.50174       -2.27716
H          0.48361        3.11085       -1.86399
H          2.79851        0.14019       -2.15691
H          2.41863       -0.44371       -0.49494
H          1.15671       -0.46916       -1.67689
Na        -0.94298       -0.77526       -2.97862
Mg         3.55377        2.37622       -2.76674
C          4.64754        5.64398        0.62333
C          3.39949        7.42213       -0.10230
O          3.57397        6.01452       -0.24110
C          4.30191        5.63193        2.11808
C          2.30908        7.94850       -0.99276
H          5.01204        4.68505        0.31024
H          5.56425        6.25307        0.44817
H          3.14348        7.72032        0.93764
H          4.33341        7.94571       -0.42225
H          1.32997        7.54676       -0.66863
H          2.29150        9.05877       -0.91844
H          2.53956        7.66163       -2.02964
H          3.35014        5.10259        2.30025
H          5.10929        5.11913        2.68306
H          4.23720        6.66520        2.51884
H          5.50671        4.38220       -1.89357
C          6.56409        2.87531       -3.00836
C          5.53191        3.27292       -1.97520
C          6.14449        3.54532       -4.28473
H          7.59900        3.17615       -2.73653
H          6.51926        1.77106       -3.11528
H          5.07810        3.35423       -4.32811
H          6.29226        4.64531       -4.22074
C          6.83097        2.96702       -5.50858
H          5.91951        2.89441       -1.01099
H          7.92268        3.14105       -5.44987
H          6.62252        1.87671       -5.57649
H          6.42556        3.45823       -6.41775
C          3.37978        2.68147       -5.98071
C          2.94426        2.17834       -7.17755
C          2.12962        1.14039       -6.88561
C          2.06598        1.06140       -5.51048
N          2.90763        1.97694       -4.90534
C          1.18948        0.02856       -4.88443
N         -0.15733        0.54136       -4.49045
C         -1.23912        0.77213       -5.49548
H          3.19573        2.53881       -8.16641
H          4.03165        3.53199       -5.98067
H          1.60237        0.52178       -7.59945
H          1.08129       -0.88198       -5.50914
H          1.68617       -0.35458       -3.97972
C         -1.39656       -0.41812       -6.47834
C         -2.56613        0.92514       -4.74952
C         -1.00617        2.07735       -6.28210
H         -1.62235       -1.35531       -5.92167
H         -2.23841       -0.22802       -7.18223
H         -0.48991       -0.57885       -7.09301
H         -2.51562        1.77609       -4.03597
H         -3.41675        1.12670       -5.45408
H         -2.82235        0.01172       -4.17308
H         -0.89946        2.92407       -5.57651
H         -0.12533        2.04402       -6.92238
H         -1.86479        2.28430       -6.95468
