110
speciation2222.ct
Na         1.59396        0.03966        0.08833
Mg        -4.79807        1.33466       -0.34245
C         -0.54974       -1.94208       -0.85307
C          0.82430       -1.60560       -2.71051
O          0.62813       -1.31496       -1.32880
C         -0.34765       -3.44173       -0.65410
C          1.94791       -0.78044       -3.29292
H         -0.77994       -1.50020        0.13363
H         -1.43731       -1.73559       -1.49589
H          1.12421       -2.66804       -2.83844
H         -0.08722       -1.38416       -3.31262
H          2.88410       -1.00098       -2.74191
H          2.09264       -1.05364       -4.36160
H          1.69103        0.29560       -3.23810
H          0.56364       -3.59955       -0.05863
H         -1.21536       -3.87946       -0.12012
H         -0.23251       -3.97071       -1.62209
H         -5.46231        3.35299       -2.12180
C         -6.10788        4.10419       -0.18350
C         -5.90158        2.95948       -1.18182
C         -4.79257        4.83172        0.08917
H         -6.84542        4.82898       -0.59357
H         -6.50062        3.69496        0.76906
H         -4.03410        4.10807        0.45043
H         -4.43533        5.29788       -0.85383
C         -4.98206        5.92056        1.14487
H         -6.88301        2.53410       -1.46761
H         -5.74161        6.66116        0.81640
H         -5.30629        5.46922        2.10656
H         -4.01698        6.44618        1.30852
C         -2.53744        1.43930       -2.59134
C         -1.17640        1.48726       -2.82519
C         -0.56821        1.45611       -1.60020
C         -1.59946        1.36137       -0.68272
N         -2.82738        1.36966       -1.26210
C         -1.39718        1.31823        0.78365
N          0.00151        1.50268        1.22169
C          0.05348        1.65644        2.71626
H         -0.65075        1.54267       -3.76796
H         -3.29128        1.46653       -3.38287
H          0.47886        1.46850       -1.40886
H         -1.75370        0.33073        1.09501
H         -2.03653        2.13264        1.15271
C         -0.54353        0.42227        3.44275
C          1.51381        1.90239        3.13011
C         -0.75045        2.88347        3.24495
H         -0.15003       -0.51458        3.04714
H         -0.37758        0.47119        4.54060
H         -1.63748        0.35213        3.30108
H          1.86520        2.87546        2.73206
H          1.60905        1.94855        4.24009
H          2.18732        1.12549        2.72881
H         -0.42392        3.82124        2.75039
H         -1.84729        2.77410        3.12064
H         -0.60720        2.99961        4.34219
Na         0.52509        3.44014        0.48719
Mg         4.19552       -0.16468        2.15251
C         -5.56098       -0.31446        2.05532
C         -7.52208        0.61221        1.37009
O         -6.12628        0.49317        1.03026
C         -4.07236       -0.35476        1.96044
C         -8.41710        1.31862        0.36781
H         -5.78408        0.10455        3.06984
H         -5.93529       -1.36201        1.98295
H         -7.97311       -0.40559        1.46128
H         -7.64329        1.15755        2.33553
H         -8.38671        0.81951       -0.61945
H         -9.46343        1.27749        0.75043
H         -8.17802        2.38811        0.29832
H         -3.70786        0.68421        2.06767
H         -3.67201       -0.97313        2.79370
H         -3.77263       -0.80355        0.99150
H          4.29653       -2.13719        4.01502
C          2.26908       -1.49281        3.81150
C          3.74113       -1.18201        3.97328
C          2.03989       -2.07640        2.40027
H          1.85435       -2.14326        4.61237
H          1.78253       -0.53312        3.93584
H          1.03052       -1.86640        2.00537
H          2.74012       -1.61546        1.67630
C          2.17736       -3.58633        2.42071
H          3.94147       -0.60325        4.90359
H          3.15548       -3.89373        2.83355
H          1.35293       -3.99554        3.04587
H          2.08353       -3.99813        1.40124
C          7.26027       -0.31029        2.51972
C          8.20343       -0.76922        1.61841
C          7.51108       -1.16904        0.48142
C          6.17284       -0.93409        0.75269
N          6.03680       -0.41896        1.97782
C          4.94280       -1.06756       -0.13773
N          3.99566        0.06833        0.14514
C          4.44817        1.38734       -0.42815
H          9.27507       -0.78988        1.77206
H          7.45570        0.10023        3.50169
H          7.94992       -1.56448       -0.42552
H          5.21303       -1.19293       -1.20509
H          4.44601       -2.01373        0.15525
C          4.61091        1.35670       -1.96926
C          3.36742        2.41132       -0.09565
C          5.77215        1.92229        0.16843
H          3.66751        1.09086       -2.46638
H          4.89938        2.36189       -2.34755
H          5.41035        0.66425       -2.30593
H          3.22547        2.45486        0.99719
H          3.64546        3.42323       -0.45999
H          2.41573        2.12870       -0.57658
H          5.70877        1.99116        1.27349
H          6.65001        1.32394       -0.14040
H          5.98459        2.94339       -0.21466
