110
speciation1908.ct
Na         2.00897        3.36584        0.90774
Mg        -3.23705        7.42316       -4.13729
C         -0.40226        4.29766        2.68077
C          0.48275        6.11007        1.57980
O          0.70106        4.75499        1.92169
C         -0.12688        2.90927        3.21077
C          1.73505        6.71960        0.99096
H         -0.54008        4.94310        3.58106
H         -1.34041        4.28458        2.07694
H         -0.37469        6.20382        0.87650
H          0.28346        6.71286        2.49555
H          1.90961        6.28363        0.01054
H          1.60699        7.81524        0.86502
H          2.61003        6.52714        1.64095
H          0.82889        2.91360        3.77424
H         -0.94959        2.61324        3.89678
H         -0.06907        2.18979        2.36961
H         -1.98054        9.72712       -4.17273
C         -3.78342       10.40651       -3.21078
C         -3.07389        9.54887       -4.25401
C         -3.39297        9.99528       -1.79034
H         -3.50748       11.47316       -3.37995
H         -4.88080       10.30028       -3.34088
H         -3.68202        8.93511       -1.62807
H         -2.29376       10.09444       -1.65112
C         -4.10106       10.86973       -0.75681
H         -3.39746        9.89490       -5.25641
H         -3.79264       11.93176       -0.86916
H         -5.20304       10.79817       -0.87929
H         -3.83496       10.52976        0.26587
C         -0.70710        1.13863       -4.60777
C         -0.23446        0.01608       -3.95988
C          0.15705        0.42342       -2.70295
C         -0.08755        1.78231       -2.64474
N         -0.62621        2.21389       -3.80124
C          0.25393        2.68094       -1.49828
N          1.70262        2.67477       -1.21749
C          2.62188        3.23895       -2.25785
H         -0.16170       -0.98258       -4.36945
H         -1.06884        1.17462       -5.62675
H          0.59971       -0.19358       -1.93235
H         -0.28192        2.30056       -0.60219
H         -0.10813        3.71392       -1.67259
C          2.27566        4.69532       -2.60500
C          4.03924        3.17479       -1.67891
C          2.64538        2.43783       -3.58444
H          2.31427        5.30661       -1.70784
H          3.00520        5.11790       -3.32744
H          1.26755        4.78279       -3.06200
H          4.31897        2.11625       -1.49340
H          4.77787        3.60126       -2.39138
H          4.09874        3.73763       -0.72393
H          2.82466        1.35795       -3.40400
H          1.73044        2.57340       -4.18157
H          3.44774        2.81956       -4.25209
Na        -1.18777        4.40835       -4.49833
Mg         2.55245        8.70009       -4.59106
C          3.99667        3.11736        3.28451
C          4.47495        1.55548        1.53902
O          3.50922        2.41164        2.13996
C          5.34804        3.84075        3.11798
C          4.79075        0.31793        2.39218
H          3.24500        3.89231        3.53509
H          4.03562        2.44192        4.16708
H          4.06037        1.18253        0.58369
H          5.40090        2.09865        1.26179
H          3.89041       -0.32392        2.48950
H          5.59471       -0.27383        1.90291
H          5.15250        0.59046        3.40501
H          5.31684        4.52814        2.24807
H          5.57142        4.42945        4.03353
H          6.19045        3.12454        3.00276
H         -5.67123        7.11616       -2.91098
C         -5.11366        5.05320       -3.25421
C         -5.17187        6.51556       -3.69959
C         -4.29268        4.89094       -1.96978
H         -6.15406        4.67804       -3.06845
H         -4.66887        4.43101       -4.05822
H         -3.26298        5.25523       -2.14840
H         -4.75699        5.48898       -1.15299
C         -4.21326        3.43127       -1.52032
H         -5.81237        6.56842       -4.60646
H         -5.22171        3.02804       -1.29087
H         -3.73747        2.80763       -2.30634
H         -3.59066        3.36396       -0.59794
C          1.12939        8.35622       -2.03587
C         -0.04770        7.88797       -1.49211
C         -0.79326        7.36643       -2.52919
C         -0.05511        7.57829       -3.65987
N          1.11973        8.16657       -3.36661
C         -0.43732        7.27320       -5.05969
N         -1.74933        6.60280       -5.19542
C         -2.11770        6.43045       -6.64370
H         -0.33218        7.92923       -0.45894
H          1.94352        8.82252       -1.50251
H         -1.76750        6.92760       -2.45365
H          0.36483        6.62383       -5.46255
H         -0.42447        8.25291       -5.56554
C         -1.09808        5.53183       -7.39179
C         -3.48561        5.74009       -6.72091
C         -2.23775        7.77636       -7.40929
H         -0.99612        4.54738       -6.88987
H         -1.43003        5.35252       -8.43774
H         -0.09707        6.00213       -7.47083
H         -4.26062        6.38238       -6.26393
H         -3.78077        5.57204       -7.78153
H         -3.46532        4.75831       -6.20548
H         -2.99145        8.43496       -6.93945
H         -1.27537        8.32012       -7.48901
H         -2.55612        7.59583       -8.45913
