95
speciation1451.ct
Na         0.36026        0.39039        2.26480
Mg         1.96033        0.34447       -2.63943
C          1.69941        2.11163        4.37553
C         -0.21261        1.22011        5.40558
O          0.35993        1.68030        4.19315
C          2.66985        1.00260        4.81185
C         -1.64475        0.76548        5.17843
H          2.04983        2.48498        3.38990
H          1.74788        2.98153        5.06655
H          0.33244        0.35628        5.83710
H         -0.24521        2.05917        6.13754
H         -1.65947       -0.12927        4.52125
H         -2.10029        0.49568        6.15654
H         -2.24262        1.57826        4.71708
H          2.60403        0.13553        4.12142
H          3.70816        1.39474        4.79956
H          2.47050        0.66708        5.85024
H          2.16233        2.96913       -1.80972
C          3.11030        2.34704        0.02078
C          2.09771        2.09257       -1.13168
C          4.54766        2.48625       -0.48344
H          2.83293        3.31075        0.50651
H          3.06055        1.57963        0.81534
H          4.54852        3.21827       -1.31804
H          5.20736        2.88362        0.32123
C          5.12681        1.15026       -0.93141
H          1.09401        2.15838       -0.65903
H          5.33018        0.50373       -0.05297
H          4.41973        0.61403       -1.58034
H          6.07371        1.32459       -1.48345
C          3.31611       -2.40609       -2.38978
C          3.59881       -3.47789       -1.57079
C          3.07285       -3.18031       -0.34960
C          2.48224       -1.93747       -0.47753
N          2.63399       -1.43512       -1.73147
C          1.73685       -1.30273        0.63598
N          0.36059       -0.92733        0.29490
C         -0.59576       -2.03846       -0.05837
H          4.11475       -4.38975       -1.84147
H          3.59783       -2.38977       -3.42150
H          3.08519       -3.81218        0.53071
H          2.27893       -0.39318        0.92175
H          1.73443       -1.95073        1.53991
C         -0.82166       -3.02011        1.10088
C         -1.94789       -1.41324       -0.46170
C         -0.14670       -2.84878       -1.29573
H         -1.20129       -2.48786        1.99479
H         -1.56766       -3.79271        0.80201
H          0.11490       -3.55832        1.35425
H         -1.82772       -0.74676       -1.34410
H         -2.67190       -2.20808       -0.76146
H         -2.39528       -0.83691        0.36958
H          0.11897       -2.14846       -2.11238
H          0.69550       -3.52890       -1.10015
H         -0.94890       -3.53631       -1.64178
Na         0.27595        0.27741       -1.44758
Mg         0.52202       -1.29575       -5.13070
H         -0.12713       -3.53795       -3.89759
C         -1.72222       -3.69695       -5.37069
C         -0.76357       -2.86541       -4.49964
C         -1.05682       -4.52895       -6.46936
H         -2.29182       -4.38120       -4.70158
H         -2.45893       -3.01666       -5.85363
H         -1.85187       -5.09977       -7.00108
H         -0.57384       -3.86236       -7.19988
C         -0.02239       -5.51223       -5.93831
H         -1.43047       -2.28727       -3.82433
H          0.81697       -4.96737       -5.45963
H         -0.48728       -6.20470       -5.20598
H          0.38802       -6.10122       -6.78500
C         -0.13910       -1.20333       -8.07888
C         -0.51504       -0.10043       -8.81419
C         -0.53417        0.97801       -7.93776
C         -0.16621        0.47338       -6.69585
N          0.05368       -0.83665       -6.80341
C          0.11486        1.15679       -5.35126
N          1.33949        0.54487       -4.71593
C          2.61094        0.97516       -5.38364
H         -0.71832       -0.10044       -9.87782
H          0.01552       -2.20052       -8.46410
H         -0.76738        1.99911       -8.20091
H          0.14098        2.26180       -5.45213
H         -0.74986        0.92896       -4.69727
C          2.81165        2.51365       -5.39699
C          3.76165        0.38415       -4.57779
C          2.77678        0.43667       -6.82763
H          2.70403        2.92193       -4.36981
H          3.81348        2.76881       -5.78005
H          2.08172        3.01258       -6.06341
H          3.66392       -0.70720       -4.58091
H          4.75381        0.63551       -5.01815
H          3.73154        0.78069       -3.55917
H          2.64679       -0.66965       -6.85575
H          2.10296        0.92478       -7.54629
H          3.80360        0.65850       -7.21626
