66
speciation196.ct
Na         1.27606        1.87239       -0.04805
Mg         5.33779       -4.32802       -1.57035
H          6.63413       -6.50152       -1.10381
C          4.94664       -6.73767        0.20115
C          6.02835       -5.86688       -0.42291
C          4.03115       -5.93335        1.12305
H          4.34287       -7.19165       -0.61459
H          5.43885       -7.55270        0.77653
H          4.62981       -5.46396        1.93358
H          3.52528       -5.13350        0.53927
C          2.97588       -6.84162        1.75116
H          6.70062       -5.44303        0.35303
H          2.35710       -7.32022        0.96189
H          3.46374       -7.63506        2.35790
H          2.31282       -6.24633        2.41258
C         -1.79403        1.07364       -0.03826
C         -2.40719       -0.16591       -0.04823
C         -1.39633       -1.11072       -0.06623
C         -0.21063       -0.41005       -0.05077
N         -0.46115        0.91221       -0.04090
C          1.18511       -1.00924       -0.04756
N          2.24500        0.03300       -0.00400
C          3.10821        0.07013        1.19413
H         -3.47143       -0.35319       -0.05524
H         -2.28918        2.03410       -0.02871
H         -1.51730       -2.18625       -0.07587
H          1.31768       -1.60443       -0.97814
H          1.25030       -1.70966        0.80437
C          3.92175       -1.23381        1.34246
C          4.09656        1.23485        1.00515
C          2.27467        0.34020        2.46584
H          4.52232       -1.42084        0.42701
H          4.61505       -1.15752        2.20826
H          3.27548       -2.11574        1.52074
H          3.55306        2.19780        0.89424
H          4.78173        1.32134        1.87623
H          4.71026        1.07943        0.09124
H          1.70530        1.28898        2.36101
H          1.55125       -0.47504        2.66776
H          2.93712        0.42996        3.35367
Mg         3.38218        0.08335       -1.63630
C          4.51449        1.08773       -4.21624
C          5.53292        0.85962       -5.11967
C          6.19021       -0.27272       -4.69820
C          5.52834       -0.69997       -3.55500
N          4.51935        0.13370       -3.26860
C          5.82802       -1.91653       -2.74718
N          4.66415       -2.82687       -2.68966
C          4.16705       -3.36098       -4.01069
H          5.76723        1.46473       -5.98791
H          3.81935        1.91719       -4.23677
H          7.03925       -0.74564       -5.17675
H          6.71732       -2.44757       -3.14373
H          6.07454       -1.59719       -1.71481
C          5.29926       -4.04847       -4.81489
C          3.07296       -4.40211       -3.73372
C          3.49197       -2.29364       -4.92457
H          5.76200       -4.86359       -4.22021
H          4.90317       -4.47973       -5.76244
H          6.08824       -3.32483       -5.10751
H          2.23649       -3.93721       -3.16937
H          2.65627       -4.79179       -4.69325
H          3.47068       -5.26340       -3.16167
H          2.72367       -1.71683       -4.36920
H          4.19980       -1.60488       -5.40543
H          3.00451       -2.76834       -5.80305
