83
speciation522.ct
Na         1.40418        2.00204        0.22811
Mg         5.66678       -1.66059       -4.24787
C          1.58887        4.63770        1.39071
C          2.15937        4.51469       -0.93529
O          2.16888        3.88619        0.33262
C          0.20189        5.23503        1.12108
C          3.20036        5.62786       -1.01883
H          1.47757        3.93712        2.24527
H          2.29486        5.42258        1.73567
H          2.44405        3.74774       -1.68674
H          1.15218        4.86570       -1.23628
H          4.21000        5.21860       -0.80196
H          3.19987        6.06017       -2.04149
H          2.96940        6.43743       -0.29663
H         -0.50171        4.44812        0.77845
H         -0.18835        5.68024        2.06104
H          0.25386        6.05449        0.37454
C         -1.66971        1.12728        0.03616
C         -2.33185       -0.07715       -0.12111
C         -1.35945       -1.05343       -0.21695
C         -0.15011       -0.39852       -0.11588
N         -0.33861        0.92443        0.03977
C          1.20964       -1.01367       -0.15393
N          2.24500        0.03300       -0.00400
C          3.19436       -0.15646        1.11629
H         -3.40254       -0.22789       -0.15850
H         -2.13374        2.09896        0.14492
H         -1.51390       -2.11718       -0.34129
H          1.35287       -1.52356       -1.12915
H          1.25288       -1.78586        0.63801
C          4.00255       -1.46544        0.95391
C          4.17633        1.02497        1.08458
C          2.46579       -0.13736        2.47919
H          4.53709       -1.47713       -0.01996
H          4.75487       -1.55924        1.76693
H          3.35732       -2.36564        1.00332
H          3.63859        1.98471        1.21381
H          4.93168        0.93963        1.89506
H          4.70565        1.06379        0.11415
H          1.86656        0.79241        2.58355
H          1.78632       -1.00341        2.60641
H          3.20123       -0.17735        3.31169
Na         3.59933        0.09296       -1.94799
C          7.77680       -3.47312       -3.84318
C          5.82812       -3.77803       -2.49483
O          6.64526       -2.87558       -3.22702
C          7.47350       -4.46193       -4.97756
C          6.48758       -4.24227       -1.19227
H          8.41253       -2.66306       -4.26172
H          8.41703       -3.94128       -3.07222
H          4.90441       -3.23220       -2.20827
H          5.48997       -4.64392       -3.09445
H          6.75225       -3.36685       -0.56323
H          5.78411       -4.89168       -0.63067
H          7.39861       -4.84331       -1.38680
H          6.71413       -5.22142       -4.71715
H          8.40591       -5.02033       -5.20980
H          7.14987       -3.92245       -5.89013
C          4.52636       -2.35433       -6.98757
C          3.71725       -1.65901       -7.86698
C          3.43838       -0.44110       -7.27188
C          4.08903       -0.46099       -6.06056
N          4.74367       -1.61263       -5.89547
C          4.12344        0.60866       -5.03008
N          4.95365        0.15292       -3.89199
C          6.07370        1.05098       -3.52413
H          3.38003       -1.98973       -8.83674
H          4.93242       -3.34723       -7.14602
H          2.83514        0.35963       -7.68484
H          3.09282        0.80925       -4.67109
H          4.50400        1.52854       -5.51263
C          5.55910        2.45315       -3.11605
C          6.78276        0.42891       -2.31197
C          7.10206        1.16920       -4.67168
H          4.82647        2.37539       -2.28463
H          6.40291        3.09395       -2.77977
H          5.06860        2.98305       -3.95731
H          7.19492       -0.56507       -2.56799
H          7.62232        1.07046       -1.96746
H          6.07429        0.29625       -1.47301
H          7.45743        0.16163       -4.97644
H          6.68259        1.67396       -5.56450
H          7.97954        1.76795       -4.34376
