96
speciation1783.ct
Na         0.69967        0.56105       -0.41363
Mg         3.47264       -1.01155        1.06669
C          0.94584       -3.02712        0.51362
C          2.58930       -3.86581        1.92930
O          2.25585       -2.78133        1.05302
C         -0.20793       -3.13816        1.54306
C          4.02626       -3.77837        2.38934
H          0.70266       -2.21482       -0.19543
H          0.94519       -3.96380       -0.09748
H          1.94916       -3.86414        2.83394
H          2.48160       -4.85766        1.43011
H          4.21600       -2.79639        2.81320
H          4.24163       -4.55671        3.15064
H          4.70884       -3.91930        1.54938
H         -0.21167       -2.27611        2.23696
H         -1.18691       -3.17452        1.01422
H         -0.15708       -4.08304        2.13451
H          7.97091        1.14656        3.75002
C          8.43355       -0.97534        3.90999
C          7.44638        0.19017        3.54514
C          9.74540       -1.02097        3.09834
H          8.70733       -0.89860        4.98320
H          7.90300       -1.94699        3.79410
H          9.54973       -1.07123        2.02133
H         10.34622       -0.10792        3.29599
C         10.57936       -2.26227        3.44177
H          6.60908        0.10953        4.26449
H         10.86012       -2.27078        4.51216
H         10.00899       -3.19109        3.20766
H         11.51095       -2.27805        2.83004
C          5.91538        2.89314        2.06651
C          5.31220        4.12294        2.08353
C          4.12412        3.96580        1.42608
C          4.05125        2.63770        1.03287
N          5.15639        1.96577        1.43513
C          2.88531        2.15311        0.21892
N          2.82569        0.71813       -0.19561
C          3.41463        0.50942       -1.52362
H          5.70643        5.04230        2.50509
H          6.88898        2.69382        2.48974
H          3.40183        4.74582        1.22539
H          1.95763        2.41173        0.76398
H          2.86368        2.83426       -0.64391
C          4.90416        0.83567       -1.43464
C          3.16795       -0.93246       -1.81440
C          2.78810        1.28204       -2.71553
H          5.27890        0.27065       -0.58316
H          5.46496        0.58535       -2.35087
H          5.09638        1.90709       -1.23264
H          2.08788       -1.16789       -1.89639
H          3.63032       -1.20037       -2.78073
H          3.53238       -1.48266       -0.93681
H          1.75899        0.92364       -2.92643
H          2.76742        2.37936       -2.63054
H          3.40634        1.07432       -3.61774
Mg         6.19986        0.28703        1.38135
C          3.68113       -0.51639        4.03985
C          1.79864        0.44904        2.96708
O          3.14481       -0.04616        2.81688
C          2.78617       -1.49330        4.82507
C          1.68710        1.69907        3.86599
H          4.64023       -1.00779        3.80316
H          3.98020        0.33415        4.69069
H          1.40133        0.73188        1.98061
H          1.10475       -0.33976        3.30493
H          2.24618        2.55616        3.44450
H          0.61575        1.99712        3.95996
H          2.04944        1.50463        4.89721
H          2.41934       -2.28499        4.16718
H          3.35723       -1.94872        5.65838
H          1.90192       -0.98107        5.26288
C          8.15616        1.18641       -0.77365
C          9.10967        0.35985       -1.33774
C          8.99328       -0.86204       -0.69633
C          7.93666       -0.70958        0.17941
N          7.46425        0.50043        0.17168
C          7.04066       -1.64830        1.03269
N          5.65063       -1.78666        0.48418
C          5.91002       -2.75825       -0.75493
H          9.76040        0.60434       -2.17546
H          7.92223        2.20280       -1.08394
H          9.54102       -1.77671       -0.92848
H          7.55234       -2.55902        1.41340
H          6.85325       -1.33027        2.00944
C          6.91046       -3.95694       -0.41815
C          4.69946       -3.61375       -1.28063
C          6.43739       -2.03174       -2.03958
H          6.48048       -4.61220        0.37264
H          7.09163       -4.60229       -1.30034
H          7.95737       -3.71258       -0.15324
H          4.04330       -3.15064       -2.01265
H          5.05808       -4.41731       -1.96379
H          4.09811       -4.09214       -0.49897
H          5.64358       -1.67657       -2.69535
H          6.95880       -1.09767       -1.91695
H          7.07059       -2.69161       -2.67005
