53
speciation899.ct
Na         1.17349       -0.12836        0.12712
C         -2.01768       -0.84995        0.38591
C         -3.10519        0.00163        0.33188
C         -2.60669        1.27145        0.09469
C         -1.24067        1.12783       -0.00436
N         -0.88064       -0.14205        0.19545
C         -0.22270        2.16464       -0.35363
N          0.97120        2.04698        0.51223
C          2.12792        2.89465        0.10345
H         -4.14778       -0.26834        0.45083
H         -2.04981       -1.91656        0.56573
H         -3.17395        2.18406       -0.02626
H         -0.66626        3.17741       -0.34146
H          0.06601        1.89189       -1.38750
C          1.81240        4.37359        0.36989
C          3.35555        2.50836        0.96196
C          2.52064        2.70850       -1.38460
H          1.55519        4.51996        1.44099
H          2.69147        5.01081        0.12712
H          0.96516        4.72142       -0.25264
H          3.66550        1.45759        0.79923
H          4.22938        3.14578        0.70981
H          3.13829        2.63131        2.04649
H          2.73464        1.64403       -1.60586
H          1.73017        3.06224       -2.07678
H          3.42755        3.30416       -1.62485
Na         1.88408        0.23455        0.45359
Li         5.27647       -4.00871       -2.20378
C          6.87008       -1.53952       -1.76057
C          6.71703       -0.20064       -1.44955
C          5.36486        0.02138       -1.31968
C          4.75143       -1.19703       -1.56203
N          5.66782       -2.13525       -1.83503
C          3.28318       -1.48280       -1.53884
N          2.75599       -1.47095       -0.17680
C          2.87131       -2.59757        0.76531
H          7.50589        0.52971       -1.32876
H          7.80925       -2.04986       -1.91355
H          4.89795        0.96532       -1.08947
H          3.05511       -2.44107       -2.03807
H          2.76540       -0.69996       -2.13465
C          4.31371       -2.72387        1.27961
C          1.95557       -2.29286        1.96694
C          2.40923       -3.91309        0.11413
H          4.64491       -1.76314        1.73260
H          4.38503       -3.52147        2.04991
H          5.00828       -2.98926        0.46286
H          0.89931       -2.18194        1.63827
H          2.00066       -3.10974        2.72003
H          2.26218       -1.34575        2.46273
H          1.36705       -3.81079       -0.26162
H          3.06831       -4.19673       -0.73231
H          2.44084       -4.74660        0.84933
