110
speciation2251.ct
Na         0.93886        0.05251       -0.05919
Mg         6.75157       -3.06001       -3.14991
C         -1.87707        0.75029        1.08168
C         -1.95067       -1.24726       -0.15482
O         -1.38114        0.05251       -0.05919
C         -1.61074        0.08836        2.44702
C         -1.43904       -1.99338       -1.38295
H         -1.37614        1.73991        1.09410
H         -2.96571        0.94813        0.97864
H         -1.69753       -1.88318        0.71971
H         -3.05357       -1.16076       -0.26501
H         -0.36894       -2.23607       -1.26309
H         -1.98712       -2.95603       -1.48578
H         -1.58663       -1.39970       -2.30807
H         -0.55514       -0.11702        2.58137
H         -1.88109        0.77903        3.26992
H         -2.17702       -0.85439        2.59000
H          7.40261       -2.16832       -5.71909
C          5.26225       -2.40005       -6.02283
C          6.58916       -2.83177       -5.36242
C          4.80404       -0.99954       -5.61281
H          5.36871       -2.43373       -7.13167
H          4.45130       -3.10808       -5.76304
H          3.83257       -0.79369       -6.11534
H          4.64184       -0.96532       -4.51592
C          5.79451        0.08586       -6.03060
H          6.85251       -3.83087       -5.77332
H          6.75995       -0.03309       -5.49879
H          5.97045        0.04458       -7.12747
H          5.38234        1.08114       -5.77077
C          7.96716        5.17184       -6.08247
C          7.13352        5.16522       -7.19353
C          5.92142        4.44545       -6.95735
C          5.93506        3.95825       -5.65492
N          7.41292        4.45979       -5.11906
C          4.39511        1.85989       -2.55063
N          3.30886        0.05251       -0.05919
C          3.33040       -0.33792        1.50840
H          7.44480        5.65344       -8.10733
H          8.95328        5.62113       -5.97440
H          5.16355        4.28442       -7.71269
H          4.31320        2.81457       -1.99981
H          3.42939        1.79430       -3.12135
C          3.21149        0.90232        2.41809
C          2.12161       -1.23000        1.92815
C          4.40854       -1.32813        2.13512
H          2.29691        1.48090        2.18981
H          3.18985        0.60824        3.49454
H          4.05830        1.57026        2.34249
H          2.08940       -2.21376        1.42352
H          2.15319       -1.48518        3.02950
H          1.19220       -0.71547        1.85956
H          4.46578       -2.25729        1.52427
H          5.35649       -0.91709        2.53001
H          4.20438       -1.73072        3.14807
Na         6.94231        3.29934       -3.10691
Mg         4.31500       -1.39901       -1.14228
C          8.50803       -5.39262       -2.57016
C          6.64450       -6.07197       -3.80821
O          7.25840       -5.00887       -3.11545
C          9.56126       -5.35522       -3.65190
C          5.20183       -5.72664       -4.04678
H          8.77953       -4.68464       -1.78335
H          8.48392       -6.34930       -1.99321
H          7.14911       -6.24734       -4.78066
H          6.63945       -7.00048       -3.18965
H          5.12849       -4.87194       -4.72300
H          4.64900       -6.57422       -4.49553
H          4.76986       -5.45497       -3.07756
H          9.36375       -4.47133       -4.29522
H         10.57134       -5.27253       -3.20569
H          9.48599       -6.28082       -4.25763
H          1.75195       -1.88397       -1.66201
C          2.59610       -3.43365       -2.91060
C          2.61924       -2.01652       -2.32992
C          2.70339       -4.55482       -1.86354
H          1.65300       -3.58238       -3.48343
H          3.43824       -3.52223       -3.62346
H          2.65570       -5.52643       -2.40402
H          3.67185       -4.49006       -1.32450
C          1.57311       -4.55574       -0.84703
H          2.46533       -1.30878       -3.17537
H          1.63527       -3.65549       -0.21182
H          0.59223       -4.58781       -1.36377
H          1.66716       -5.44889       -0.19359
C          6.32611        3.00317       -0.09020
C          5.98566        2.31504        0.97666
C          5.93409        1.02573        0.53441
C          6.33870        0.89832       -0.77132
N          6.47169        2.13888       -1.09475
C          6.64561       -0.19348       -1.87298
N          6.36366       -1.62635       -1.59325
C          7.21542       -2.24802       -0.52233
H          5.78300        2.70441        1.96119
H          6.45532        4.07394       -0.15596
H          5.66451        0.37152        1.18027
H          7.70483       -0.07064       -2.18073
H          6.09062        0.05582       -2.80028
C          7.10379       -1.57027        0.77974
C          6.62075       -3.64339       -0.28960
C          8.72756       -2.21352       -0.80021
H          6.07840       -1.44328        0.65218
H          7.32745       -2.18074        1.67682
H          7.66453       -0.61792        0.86347
H          6.67178       -4.23312       -1.17303
H          7.11417       -4.18064        0.54468
H          5.52970       -3.56832       -0.08455
H          9.00963       -2.65689       -1.75643
H          9.09377       -1.16192       -0.83021
H          9.26229       -2.69536        0.05417
