110
speciation2389.ct
Na         1.05791        1.63778        0.18095
Mg         3.59098       -0.38486       -1.65026
C          1.52125        2.12962        3.54053
C          0.05033        3.70253        2.66421
O          1.09427        2.77758        2.32329
C          0.42256        1.33271        4.30077
C          0.52302        4.85711        3.57311
H          2.38532        1.51083        3.32049
H          2.04726        2.80952        4.23683
H         -0.37911        4.17560        1.78036
H         -0.82496        3.18458        3.10366
H          1.32964        5.43269        3.07383
H         -0.33083        5.52727        3.79481
H          0.88771        4.51598        4.56335
H         -0.21777        0.72900        3.62520
H          0.88683        0.65380        5.04656
H         -0.25332        2.01185        4.85675
H          4.96178        2.01277       -2.31458
C          6.60020        0.68860       -2.73582
C          5.35574        1.04368       -1.93699
C          6.30895        0.53665       -4.21938
H          7.36638        1.49089       -2.61133
H          7.00904       -0.25568       -2.31738
H          5.51044       -0.20116       -4.34382
H          5.95005        1.49427       -4.65552
C          7.56513        0.06962       -4.94904
H          5.78701        1.24795       -0.94232
H          8.34660        0.85830       -4.90669
H          7.96290       -0.85540       -4.47620
H          7.32618       -0.15064       -6.00887
C         -1.99074        0.71764        0.29716
C         -2.60524       -0.50075        0.10753
C         -1.60201       -1.41529       -0.15481
C         -0.40976       -0.71327       -0.11839
N         -0.65776        0.57879        0.16604
C          0.98012       -1.30533       -0.36923
N          2.10124       -0.32952       -0.15459
C          2.82704       -0.53006        1.11223
H         -3.66944       -0.69529        0.14934
H         -2.49205        1.65366        0.50700
H         -1.73264       -2.47052       -0.34927
H          1.00379       -1.67868       -1.40504
H          1.08543       -2.20814        0.26417
C          3.69929       -1.79909        1.09869
C          3.69878        0.72216        1.26296
C          1.86709       -0.66148        2.29235
H          4.35418       -1.83871        0.20745
H          4.32214       -1.83784        2.02017
H          3.06756       -2.71339        1.10993
H          3.09262        1.64988        1.22519
H          4.31862        0.72261        2.18107
H          4.35627        0.78124        0.40714
H          1.12990        0.13094        2.14899
H          1.28551       -1.59975        2.32223
H          2.42110       -0.62263        3.25653
Na         3.98182        3.84730       -3.68849
Mg         3.13906        3.64369       -1.66836
C          5.59876        4.18062       -0.25391
C          4.83642        6.00828       -1.60040
O          4.80137        4.61050       -1.35895
C          5.50808        5.00592        1.03987
C          6.17556        6.43659       -2.21198
H          5.25176        3.16959        0.01770
H          6.65975        4.07930       -0.57256
H          4.03883        6.25666       -2.32954
H          4.59681        6.60747       -0.69745
H          6.33529        5.91395       -3.17838
H          6.17955        7.53274       -2.38993
H          7.02162        6.20159       -1.53242
H          4.45133        5.10145        1.36342
H          6.08245        4.49116        1.84021
H          5.96547        6.01086        0.91929
H          2.21256       -2.07951       -3.23790
C          4.10335       -2.66834       -4.06650
C          3.18142       -1.59079       -3.45480
C          4.45859       -3.83375       -3.13476
H          3.61079       -3.08338       -4.97517
H          5.05590       -2.22736       -4.39985
H          5.14182       -4.50850       -3.69815
H          5.00086       -3.46412       -2.23845
C          3.24506       -4.65685       -2.71053
H          2.97052       -0.84021       -4.24688
H          2.58174       -4.06447       -2.04840
H          2.67676       -4.99454       -3.60391
H          3.58733       -5.55492       -2.15359
C          2.42223        2.85708       -6.14231
C          1.38010        2.07297       -6.58234
C          0.82222        1.49663       -5.45963
C          1.55657        1.95665       -4.36671
N          2.53789        2.77545       -4.79923
C          1.29049        1.59171       -2.91353
N          1.34509        2.69966       -1.90482
C          0.36241        3.79848       -2.07567
H          1.06159        1.94415       -7.61247
H          3.06082        3.46382       -6.77119
H         -0.01932        0.81712       -5.45302
H          2.05729        0.85067       -2.62856
H          0.32343        1.04711       -2.85041
C         -1.08948        3.28475       -2.06587
C          0.58302        4.71196       -0.88316
C          0.57946        4.65486       -3.34286
H         -1.28869        2.74843       -1.12909
H         -1.80453        4.13299       -2.12401
H         -1.30170        2.61581       -2.92616
H          1.61560        5.12118       -0.87509
H         -0.14897        5.54631       -0.85268
H          0.49377        4.07915       -0.00372
H          1.60427        5.08272       -3.36384
H          0.37941        4.10493       -4.27678
H         -0.14782        5.49474       -3.35781
