110
speciation2429.ct
Na         1.03761       -0.08874       -0.02667
Mg         2.39928        4.90943       -0.04304
C         -1.71000       -1.35699        0.45798
C         -1.73065        0.20904       -1.34121
O         -1.28239       -0.08874       -0.02667
C         -1.44018       -2.55345       -0.46759
C         -3.24163        0.44213       -1.41630
H         -1.15020       -1.54083        1.39874
H         -2.78069       -1.32251        0.75001
H         -1.25190        1.15887       -1.65301
H         -1.40006       -0.54874       -2.07991
H         -3.53201        1.28606       -0.75576
H         -3.52239        0.69376       -2.46130
H         -3.80715       -0.46576       -1.12384
H         -0.37619       -2.58409       -0.76569
H         -1.68850       -3.49483        0.06570
H         -2.07260       -2.51788       -1.37780
H          1.63675        7.55780        0.41852
C          0.93991        7.37556       -1.63480
C          1.89051        6.98326       -0.49264
C         -0.52664        7.04787       -1.35192
H          1.02366        8.46867       -1.83325
H          1.25770        6.84476       -2.55549
H         -1.12653        7.32327       -2.25242
H         -0.63911        5.96386       -1.17540
C         -1.08375        7.84423       -0.16664
H          2.89750        7.35061       -0.81093
H         -0.54769        7.59409        0.77073
H         -0.99457        8.93550       -0.35547
H         -2.15428        7.59559       -0.02085
C          0.25456        3.67621        1.09086
C         -0.52603        2.70108        1.60363
C          0.28361        1.57901        1.71816
C          1.56912        1.85955        1.21799
N          1.49610        3.21751        0.83133
C          2.76006        0.65034        1.21805
N          3.40761       -0.08874       -0.02667
C          3.73778       -1.51627       -0.09418
H         -1.57970        2.81072        1.84875
H         -0.06908        4.68761        0.86390
H         -0.07337        0.64128        2.09806
H          3.58320        1.04372        1.85872
H          2.28055       -0.13293        1.82417
C          2.55864       -2.28830       -0.69132
C          4.92643       -1.64730       -1.07265
C          4.14539       -2.11645        1.26148
H          2.24682       -1.82849       -1.66557
H          2.82280       -3.34778       -0.89476
H          1.70018       -2.26991       -0.00131
H          5.80187       -1.07187       -0.70466
H          5.22837       -2.70668       -1.21295
H          4.64689       -1.24543       -2.07713
H          5.00954       -1.55962        1.68485
H          3.30525       -2.09405        1.97703
H          4.44103       -3.17973        1.12117
Na         4.83654        1.07284       -1.84920
Mg         1.64507        4.53879       -3.61811
C          1.06397        5.64475       -6.15084
C         -0.86580        4.71310       -5.15609
O          0.54838        4.72059       -5.20802
C          0.80030        7.11674       -5.81091
C         -1.35061        3.69106       -4.14220
H          2.16465        5.49819       -6.18004
H          0.69965        5.40340       -7.17353
H         -1.28069        5.69632       -4.85177
H         -1.26934        4.40762       -6.14723
H         -1.05166        4.00362       -3.11977
H         -2.45886        3.62697       -4.17802
H         -0.93008        2.69062       -4.37559
H          1.19712        7.36325       -4.80736
H          1.31149        7.75980       -6.55808
H         -0.27976        7.36286       -5.85598
H          4.32147        6.07903        1.50727
C          3.88865        4.20351        2.59608
C          3.47677        5.39560        1.73464
C          4.55251        4.64421        3.90018
H          2.98802        3.60227        2.84635
H          4.59969        3.58162        2.02227
H          5.40667        5.30532        3.65137
H          3.83208        5.20615        4.53855
C          5.09282        3.44145        4.67364
H          2.71023        5.96764        2.30658
H          4.27287        2.78348        5.03399
H          5.77128        2.84740        4.02442
H          5.67562        3.79954        5.54740
C          6.12457        2.83574       -4.53407
C          6.08116        3.97820       -5.31413
C          5.34182        4.89949       -4.62023
C          4.94837        4.28951       -3.43524
N          5.44381        3.00939       -3.37474
C          4.05628        5.00440       -2.39687
N          2.77003        4.35231       -1.98723
C          2.77947        2.89440       -1.90305
H          6.50678        4.11598       -6.30232
H          6.57460        1.90397       -4.84628
H          5.08233        5.89921       -4.95131
H          4.67644        5.17613       -1.49413
H          3.80883        6.02241       -2.76830
C          3.82654        2.77446       -0.73733
C          1.27305        2.52083       -1.74187
C          2.96386        2.01721       -3.23633
H          3.64896        3.47447        0.06621
H          4.12511        1.92032       -0.20514
H          4.83366        3.06510       -1.05886
H          0.72206        2.58312       -2.70043
H          1.15023        1.47519       -1.42254
H          0.63774        3.24177       -1.23391
H          2.37021        2.45348       -4.07079
H          3.84879        1.68329       -3.76972
H          2.60278        0.97620       -3.06307
