68
speciation46.ct
Na         2.68767        0.50332        2.71553
Mg         2.76657        4.67877       -0.59653
C          1.19932       -0.51551        5.12687
C          0.18835        1.56424        4.53977
O          1.38267        0.79878        4.61082
C          0.11008       -1.35451        4.44140
C         -0.35275        1.91880        5.93396
H          2.15979       -1.05055        4.97044
H          1.05828       -0.49252        6.22748
H          0.42118        2.52228        4.03047
H         -0.58908        1.07316        3.92186
H          0.38998        2.52734        6.49244
H         -1.29213        2.50165        5.83609
H         -0.58981        1.01122        6.52703
H          0.28420       -1.39206        3.34560
H          0.13499       -2.38844        4.84505
H         -0.90439       -0.95620        4.64964
C          4.58262       -0.97811        0.45542
C          5.29065       -0.86364       -0.72288
C          5.15232        0.44243       -1.14063
C          4.35459        1.06373       -0.19333
N          4.02079        0.20151        0.77941
C          3.91070        2.48192       -0.18646
N          3.16606        2.91859       -1.37628
C          1.86417        2.29394       -1.71952
H          5.84429       -1.64988       -1.21915
H          4.48304       -1.87708        1.04961
H          5.57746        0.88160       -2.03094
H          3.31568        2.68435        0.72355
H          4.82135        3.11347       -0.12033
C          0.86717        2.44394       -0.55763
C          1.30433        3.04007       -2.94629
C          2.00498        0.80783       -2.12145
H          0.72865        3.51878       -0.31116
H         -0.11948        2.01390       -0.83210
H          1.22508        1.91380        0.34812
H          1.98465        2.92995       -3.81935
H          0.30954        2.63372       -3.23611
H          1.18757        4.12201       -2.73415
H          2.76194        0.69107       -2.92787
H          2.27687        0.16291       -1.26764
H          1.03752        0.41241       -2.49976
Na         4.45956        2.81166       -3.08246
C          0.69275        6.84864       -1.52241
C          0.77126        8.22403       -1.37714
C          1.98399        8.50204       -0.77894
C          2.58700        7.27695       -0.59718
N          1.80897        6.28521       -1.02955
C          3.86594        6.93978        0.08000
N          3.61893        5.75149        0.90782
C          2.93834        5.97038        2.22418
H          0.01413        8.94808       -1.65239
H         -0.14281        6.29404       -1.92598
H          2.37539        9.46339       -0.48217
H          4.34662        7.78532        0.60066
H          4.56220        6.60635       -0.71853
C          1.53174        6.60452        2.09859
C          2.76168        4.60857        2.91487
C          3.80577        6.86381        3.13992
H          0.87568        5.98849        1.44865
H          1.04587        6.67885        3.09634
H          1.57985        7.64165        1.71728
H          3.74302        4.11114        3.06673
H          2.28264        4.73264        3.91433
H          2.10974        3.94334        2.31093
H          4.81347        6.41802        3.27813
H          3.92278        7.88546        2.72733
H          3.33149        6.98077        4.13903
