96
speciation1341.ct
Na         0.14836        1.25381       -0.39512
Mg        -0.40337       -1.10415       -0.22952
C          0.90257        4.17159       -0.16179
C          0.37094        3.52252       -2.40068
O          0.83269        3.12137       -1.11361
C         -0.38331        4.99150       -0.00020
C          1.37618        4.40125       -3.15018
H          1.12402        3.70173        0.81816
H          1.76893        4.83269       -0.38004
H          0.24960        2.62133       -3.02273
H         -0.63538        3.98367       -2.37183
H          2.35096        3.87756       -3.24607
H          0.98940        4.61520       -4.17023
H          1.52615        5.37037       -2.63326
H         -1.23842        4.31972        0.21906
H         -0.25691        5.70863        0.83678
H         -0.59739        5.59424       -0.90767
H         -0.10759       -3.83790       -0.41116
C         -1.12622       -3.45617       -2.26248
C         -0.89246       -3.14916       -0.78053
C          0.13502       -3.19192       -3.09335
H         -1.41970       -4.52358       -2.37291
H         -1.96998       -2.84136       -2.63762
H          0.47044       -2.14229       -2.96132
H          0.95184       -3.86518       -2.75369
C         -0.12997       -3.43133       -4.57785
H         -1.82294       -3.38905       -0.22890
H         -0.45061       -4.48041       -4.75247
H         -0.92371       -2.74312       -4.94102
H          0.79634       -3.23914       -5.15909
C         -5.67503       -0.90581        2.19839
C         -4.91022       -2.03027        2.00522
C         -3.65113       -1.59466        1.66234
C         -3.70602       -0.21166        1.62695
N         -4.94612        0.20377        1.98359
C         -2.54106        0.68630        1.32856
N         -1.84390        0.33717        0.04256
C         -2.65544        0.45199       -1.19362
H         -5.22882       -3.05698        2.14158
H         -6.70238       -0.89506        2.53977
H         -2.78906       -2.21728        1.48063
H         -1.87077        0.58973        2.18229
H         -2.85538        1.74779        1.34675
C         -3.21365        1.87615       -1.35783
C         -1.71335        0.15427       -2.35530
C         -3.80947       -0.58131       -1.27917
H         -2.38211        2.60844       -1.33204
H         -3.75250        1.97004       -2.32094
H         -3.93024        2.12620       -0.54807
H         -1.22921       -0.81722       -2.19632
H         -2.25446        0.13453       -3.32365
H         -0.91575        0.90205       -2.40529
H         -3.43627       -1.61331       -1.10392
H         -4.64390       -0.36969       -0.58794
H         -4.28898       -0.55295       -2.27916
Mg        -5.82741        1.86249        2.64094
C         -7.93220        3.77369        2.68509
C         -6.01383        4.58123        3.84429
O         -6.68655        3.47953        3.28176
C         -7.82013        4.66012        1.44293
C         -4.69066        4.10113        4.41907
H         -8.36089        2.80183        2.35835
H         -8.64605        4.18807        3.42924
H         -5.78696        5.36321        3.08963
H         -6.61670        4.99714        4.68170
H         -4.03817        3.72579        3.60167
H         -4.17744        4.93975        4.93506
H         -4.86701        3.28143        5.14748
H         -7.09034        4.22775        0.72625
H         -8.81230        4.72688        0.94865
H         -7.51116        5.68968        1.71456
C          2.20278        0.88662       -3.92108
C          3.56438        0.66146       -3.91076
C          3.87762        0.12493       -2.68171
C          2.75525        0.03105       -1.95744
N          1.64749        0.49528       -2.68825
C          2.75106       -0.49056       -0.54811
N          1.46834       -0.42973        0.20985
C          1.64008       -0.90053        1.62315
H          4.25339        0.87478       -4.72203
H          1.65579        1.30856       -4.74599
H          4.86920       -0.16067       -2.34781
H          3.49855        0.15159       -0.04004
H          3.13355       -1.52568       -0.60296
C          2.70181       -0.09715        2.41767
C          0.32430       -0.71634        2.35929
C          1.98413       -2.40593        1.66015
H          2.45790        0.98759        2.40494
H          2.71707       -0.43300        3.47860
H          3.73130       -0.24407        2.03904
H         -0.49764       -1.25127        1.84146
H          0.37812       -1.11473        3.39587
H          0.14019        0.37175        2.42729
H          1.21713       -2.98212        1.11408
H          2.97378       -2.62898        1.21732
H          2.01273       -2.78127        2.70448
