96
speciation1053.ct
Na         1.18303        1.86984        0.32470
Mg         4.38782       -1.57221       -4.24096
C          1.43169        2.35056        3.64600
C          0.11187        3.84109        2.48091
O          1.13680        2.87573        2.34794
C          0.31998        1.45898        4.25877
C         -0.20674        4.44063        1.14177
H          2.39323        1.81059        3.58855
H          1.69337        3.15478        4.36986
H         -0.83008        3.38887        2.86007
H          0.44889        4.67179        3.14131
H         -0.59914        3.64361        0.48313
H         -0.98121        5.22425        1.26024
H          0.71532        4.88864        0.72245
H         -0.09436        0.72060        3.54541
H          0.72721        0.90679        5.13396
H         -0.53119        2.06841        4.61921
H          4.64363       -4.17661       -4.54752
C          3.10965       -3.96212       -3.01627
C          4.42807       -3.55302       -3.65485
C          1.94734       -3.80533       -3.99550
H          3.18824       -5.02447       -2.69635
H          2.93388       -3.32953       -2.11882
H          1.85481       -2.73872       -4.29948
H          2.13367       -4.42218       -4.90106
C          0.63843       -4.26209       -3.35316
H          5.23572       -3.72264       -2.91612
H          0.70527       -5.33594       -3.07077
H          0.42016       -3.66186       -2.44633
H         -0.19559       -4.13790       -4.07447
C         -1.84646        0.97709       -0.06123
C         -2.41079       -0.25547       -0.33640
C         -1.36436       -1.15805       -0.43601
C         -0.21141       -0.43334       -0.22464
N         -0.51045        0.85367        0.01690
C          1.20096       -0.99824       -0.26189
N          2.24500        0.03300       -0.00400
C          3.14519       -0.27833        1.14051
H         -3.46307       -0.47351       -0.45349
H         -2.38353        1.90542        0.06158
H         -1.44420       -2.21443       -0.63950
H          1.38275       -1.44290       -1.25647
H          1.22631       -1.83419        0.46224
C          3.95660       -1.57839        0.95445
C          4.10009        0.91724        1.28383
C          2.34374       -0.46917        2.42248
H          4.48526       -1.59836        0.00414
H          4.68373       -1.69734        1.79172
H          3.30664       -2.47553        0.95755
H          3.53377        1.86399        1.41956
H          4.78959        0.79310        2.14493
H          4.71635        1.01396        0.37338
H          1.56094        0.27316        2.37033
H          1.81454       -1.43767        2.48699
H          2.98804       -0.39611        3.32802
Mg         3.38218        0.08335       -1.63630
C          3.04851        3.07733       -1.63234
C          0.88831        4.02927       -1.95128
O          1.64937        2.95007       -1.43043
C          3.71039        4.25555       -0.94304
C          0.91536        4.10713       -3.48224
H          3.50303        2.14921       -1.24968
H          3.30020        3.11653       -2.70105
H         -0.16837        3.85196       -1.68562
H          1.18961        4.99760       -1.50307
H          0.54194        3.15976       -3.92687
H          0.26078        4.94060       -3.81329
H          1.93021        4.32021       -3.87272
H          3.48042        4.24731        0.13544
H          4.81290        4.17074       -1.08778
H          3.39167        5.20692       -1.40887
C          3.76707       -0.88036       -7.20422
C          3.44099        0.34306       -7.76819
C          3.44593        1.26532       -6.73764
C          3.79497        0.56284       -5.60787
N          3.96998       -0.73153       -5.88432
C          3.94637        1.11757       -4.22347
N          4.51935        0.13370       -3.26860
C          5.99058        0.27383       -3.01760
H          3.21623        0.54239       -8.80838
H          3.84260       -1.82090       -7.73608
H          3.23791        2.32488       -6.81584
H          2.91205        1.36858       -3.90912
H          4.54571        2.04230       -4.28340
C          6.35581        1.61857       -2.34523
C          6.43773       -0.83467       -2.06102
C          6.80433        0.10313       -4.31826
H          5.80114        1.74906       -1.40022
H          7.44018        1.64190       -2.09782
H          6.16208        2.49622       -2.98727
H          6.23242       -1.83300       -2.48194
H          7.52586       -0.77657       -1.84391
H          5.92569       -0.70875       -1.10383
H          6.58457       -0.87941       -4.78843
H          6.58257        0.90795       -5.04625
H          7.89526        0.13842       -4.09895
