110
speciation2078.ct
Na         1.04861        0.07537        0.04423
Mg         4.46648        2.10682       -0.07753
C         -2.10126        1.15353        0.43621
C         -1.70098       -1.26678        0.10184
O         -1.27139        0.07537        0.04423
C         -2.31296        1.34048        1.94370
C         -1.05379       -2.03364        1.26958
H         -1.54502        2.05617        0.10523
H         -3.05437        1.17836       -0.13175
H         -2.80039       -1.36996        0.06529
H         -1.30654       -1.75616       -0.81987
H         -1.31404       -1.58935        2.24873
H         -1.39956       -3.09122        1.25276
H          0.05743       -2.06104        1.17280
H         -1.36803        1.22566        2.51521
H         -2.67296        2.38304        2.11364
H         -3.09101        0.65652        2.33795
H          7.10718        2.95263        0.23653
C          7.49896        1.45271       -1.22987
C          6.71812        1.94249       -0.00692
C          8.99188        1.16159       -1.05271
H          7.14061        0.48191       -1.46664
H          7.32876        2.15257       -2.07459
H          9.56441        2.07105       -0.78017
H          9.11801        0.39828       -0.25141
C          9.53607        0.57154       -2.36726
H          6.91264        1.27713        0.86333
H          8.93116       -0.30875       -2.68747
H          9.48919        1.33061       -3.17746
H         10.58461        0.23283       -2.24763
C          3.34546        0.09722        4.65820
C          2.70972        1.20968        4.14551
C          2.76135        1.08510        2.77417
C          3.47693       -0.05756        2.51942
N          3.79852       -0.67662        3.65474
C          3.83403       -0.66887        1.24650
N          3.41861        0.07537        0.04423
C          3.63632       -0.84428       -1.15500
H          2.21750        1.99167        4.70823
H          3.41824       -0.16220        5.70605
H          2.30950        1.73106        2.04076
H          3.34396       -1.65271        1.31816
H          4.93360       -0.77553        1.27368
C          2.84235       -2.18397       -1.08020
C          3.16007       -0.14799       -2.42587
C          5.10758       -1.25008       -1.40835
H          1.75926       -2.00922       -0.95469
H          2.97476       -2.75577       -2.02891
H          3.21505       -2.88668       -0.30875
H          3.78310        0.73356       -2.55515
H          3.32168       -0.78561       -3.32728
H          2.09697        0.14279       -2.36723
H          5.56187       -0.44331       -1.96079
H          5.68791       -1.57139       -0.52088
H          5.19323       -2.08644       -2.13542
Na         3.21804       -5.56094        3.88799
Mg         4.41309       -2.55849        3.85713
C          2.64272        4.14903       -1.32302
C          4.08077        3.15085       -2.93178
O          3.83107        3.38537       -1.54556
C          1.33053        3.44361       -1.68321
C          4.33595        4.40614       -3.78044
H          2.60104        4.41944       -0.25280
H          2.69726        5.13718       -1.82862
H          5.01070        2.55123       -2.99676
H          3.25808        2.58323       -3.41118
H          5.16517        5.01065       -3.36261
H          4.61017        4.08869       -4.81091
H          3.42483        5.03161       -3.88410
H          1.23371        2.49683       -1.11646
H          0.47859        4.10856       -1.41583
H          1.24979        3.24546       -2.77143
H          3.25633        3.57369        1.87458
C          5.00502        4.75681        1.75777
C          4.31684        3.39254        1.70765
C          4.77468        5.45412        3.11885
H          6.09091        4.62387        1.60242
H          4.59088        5.38820        0.94972
H          3.68535        5.54453        3.33430
H          5.24047        4.84337        3.92937
C          5.37229        6.86078        3.15049
H          4.69778        2.78387        2.54870
H          6.45929        6.83133        2.91866
H          4.85834        7.50944        2.40896
H          5.23458        7.30865        4.15845
C          8.56441       -2.48373        1.31817
C          8.47282       -1.84342        2.51591
C          7.43594       -2.43801        3.21998
C          6.92900       -3.46350        2.50126
N          7.60956       -3.51175        1.25117
C          5.81120       -4.49540        2.79078
N          5.02766       -4.44036        4.05952
C          5.72290       -4.88695        5.35490
H          9.11616       -1.03596        2.84894
H          9.27852       -2.24431        0.53768
H          7.15552       -2.08383        4.18293
H          6.22439       -5.50646        2.63256
H          5.07641       -4.31756        1.97336
C          6.95838       -4.04933        5.75329
C          4.75832       -4.75621        6.56049
C          6.17380       -6.37486        5.32675
H          6.66778       -2.99853        5.95175
H          7.37573       -4.39410        6.72751
H          7.79342       -4.16145        5.03597
H          3.85944       -5.39194        6.43740
H          5.26382       -5.09915        7.49780
H          4.44444       -3.70527        6.72959
H          5.31525       -7.07205        5.42095
H          6.77114       -6.63692        4.43520
H          6.83000       -6.59042        6.20570
