83
speciation519.ct
Na         0.60726       -0.98514       -0.79170
Mg         5.24231       -3.62635        0.56592
C         -0.76441       -3.47072       -2.40611
C         -0.72998       -4.24669       -0.23011
O         -0.16401       -3.26337       -1.14304
C         -0.17899       -2.51771       -3.40555
C         -0.28368       -5.73731       -0.47195
H         -0.50271       -4.47112       -2.81497
H         -1.87265       -3.36015       -2.37121
H         -0.46309       -4.01728        0.82404
H         -1.84470       -4.21965       -0.26232
H          0.74459       -5.94277       -0.10651
H         -0.96344       -6.43300        0.07373
H         -0.33115       -6.08868       -1.52115
H          0.92323       -2.64459       -3.41949
H         -0.58297       -2.76074       -4.41184
H         -0.44877       -1.48300       -3.12261
C         -2.26429       -0.69093        0.65131
C         -3.04425        0.41146        0.94842
C         -2.38094        1.51368        0.44505
C         -1.22615        1.05138       -0.12214
N         -1.14790       -0.31341        0.00143
C         -0.16360        1.83520       -0.81185
N          1.15100        1.40994       -0.33751
C          2.19780        2.48025       -0.06974
H         -4.00590        0.42575        1.43534
H         -2.48113       -1.72248        0.91638
H         -2.68286        2.54762        0.46317
H         -0.35245        2.92305       -0.73200
H         -0.18940        1.57824       -1.87547
C          1.67756        3.56325        0.92214
C          3.46374        1.89293        0.63955
C          2.67333        3.13286       -1.36589
H          1.36891        3.10114        1.88715
H          2.47848        4.30414        1.15671
H          0.83340        4.15209        0.52624
H          3.97123        1.12323        0.02893
H          4.21998        2.69185        0.83882
H          3.23520        1.47276        1.64429
H          3.13879        2.36676       -2.02044
H          1.82612        3.61169       -1.88953
H          3.44118        3.91222       -1.14677
Na         1.55171        0.24073        1.03654
C          3.80521       -4.37945        3.26545
C          6.07921       -4.70555        3.15257
O          4.90285       -4.68631        2.37452
C          3.27373       -5.49673        4.13641
C          7.27825       -4.69127        2.23764
H          3.97590       -3.49704        3.92254
H          2.93104       -4.19591        2.69271
H          6.16977       -3.82487        3.83508
H          6.10111       -5.64738        3.74305
H          7.33645       -3.71189        1.71849
H          8.19787       -4.84535        2.84193
H          7.17988       -5.50677        1.49273
H          4.01644       -5.79778        4.89352
H          2.37937       -5.09100        4.67368
H          2.93555       -6.34836        3.51323
C          6.78845       -1.68499       -1.56634
C          6.60232       -0.61150       -2.42032
C          5.26082       -0.33385       -2.40581
C          4.67338       -1.25085       -1.54718
N          5.62382       -2.10759       -1.04335
C          3.14794       -1.26106       -1.35095
N          2.49149       -1.24660       -0.00572
C          2.77636       -2.21459        1.01608
H          7.35011       -0.06997       -2.99428
H          7.78370       -2.07952       -1.32947
H          4.75774        0.45006       -2.98108
H          2.74248       -2.09480       -1.94555
H          2.75634       -0.36125       -1.87958
C          4.11783       -1.75826        1.59421
C          1.72838       -1.98449        2.16852
C          2.71815       -3.62076        0.30996
H          4.14646       -0.66627        1.74473
H          4.54899       -2.21796        2.46236
H          4.85750       -1.89314        0.90759
H          0.68279       -1.99851        1.80138
H          1.76546       -2.63158        3.05552
H          1.90951       -0.99813        2.65419
H          1.70781       -3.78404       -0.02396
H          3.34739       -3.66235       -0.59444
H          2.97749       -4.57067        0.78222
