95
speciation1427.ct
Na         2.13410        1.91692        1.13945
Mg        -0.61630        7.22610       -1.59379
C         -0.82346       -0.43083        0.98872
C          1.12395       -1.66900        0.54667
O          0.62035       -0.32531        0.84793
C         -1.34401       -1.52304        1.97605
C          0.52298       -2.45045       -0.68679
H         -1.22202        0.53368        1.34092
H         -1.29843       -0.60653       -0.00166
H          2.19773       -1.65435        0.36091
H          1.03090       -2.32391        1.43878
H          0.76778       -2.00149       -1.66640
H          0.95769       -3.47577       -0.72869
H         -0.57567       -2.61116       -0.65087
H         -0.92697       -1.37995        2.99071
H         -2.45351       -1.49481        2.03673
H         -1.12239       -2.56829        1.65150
H         -2.82098        7.36167       -3.01020
C         -3.30050        8.39563       -1.14423
C         -2.62958        7.26962       -1.92000
C         -2.74709        9.76398       -1.54564
H         -4.39577        8.36094       -1.33422
H         -3.11935        8.22975       -0.06019
H         -1.65257        9.79439       -1.35265
H         -2.92588        9.94075       -2.62872
C         -3.42346       10.87335       -0.74250
H         -3.03960        6.29983       -1.56704
H         -4.51806       10.87657       -0.93428
H         -3.24710       10.72454        0.34458
H         -3.00760       11.85923       -1.03782
C          4.21704        5.03165        1.41979
C          4.69688        6.32842        1.36936
C          3.66898        7.09462        0.99181
C          2.59237        6.26745        0.75500
N          2.87755        4.89765        1.04623
C          1.37834        7.03443        0.20368
N          1.34763        7.18364       -1.27559
C          2.16820        7.94534       -2.24736
H          5.69540        6.70256        1.57700
H          4.88740        4.23574        1.70291
H          3.70068        8.18322        0.85747
H          1.27634        8.04562        0.66654
H          0.47723        6.47489        0.51320
C          3.67568        7.64517       -2.15113
C          1.71789        7.47512       -3.65047
C          1.90844        9.45318       -2.14021
H          3.86254        6.54942       -2.16908
H          4.21042        8.09372       -3.01819
H          4.13929        8.09880       -1.26701
H          0.62737        7.63537       -3.79379
H          2.25334        8.02882       -4.45381
H          1.92384        6.39016       -3.78903
H          0.83719        9.68038       -2.32897
H          2.18987        9.82986       -1.13676
H          2.51176        9.99703       -2.90273
Na         2.10007        4.93626       -1.27898
Mg         3.95246        2.36008       -2.90782
H          5.59003        1.04272       -4.45794
C          6.12325        3.12121       -4.73397
C          5.08006        2.02302       -4.57411
C          7.06654        3.14340       -3.52495
H          6.71155        2.92780       -5.65756
H          5.60635        4.09961       -4.83030
H          6.48425        3.32456       -2.59671
H          7.58234        2.16154       -3.43494
C          8.12093        4.23667       -3.66644
H          4.41251        1.97577       -5.45989
H          8.72903        4.07031       -4.58118
H          7.63485        5.23345       -3.72547
H          8.79568        4.22080       -2.78430
C          4.49064       -0.67383        0.72907
C          5.68718       -0.57345        0.02042
C          5.71454        0.67159       -0.54422
C          4.53305        1.24507       -0.15870
N          3.81352        0.49765        0.66289
C          4.02829        2.58533       -0.40960
N          2.85251        2.68888       -1.28237
C          1.52333        2.02576       -1.51066
H          6.44875       -1.34483       -0.07782
H          4.19881       -1.52516        1.31528
H          6.49401        1.11019       -1.15319
H          3.79876        2.89244        0.57858
H          4.82605        3.24074       -0.82121
C          0.36532        2.35162       -0.47632
C          0.93070        2.61532       -2.81040
C          1.72950        0.54930       -1.80776
H          0.17239        3.44454       -0.44116
H         -0.56935        1.85703       -0.81824
H          0.33076        2.05641        0.57587
H          1.59999        2.46392       -3.67716
H         -0.04792        2.12784       -3.04260
H          0.72673        3.70146       -2.70033
H          2.42698        0.42059       -2.66241
H          2.18495        0.03180       -0.97744
H          0.75856        0.08518       -2.06765
