83
speciation512.ct
Na         1.05627       -0.08261        0.00304
Mg         4.14129       -4.20565        1.66524
C         -1.99117       -0.34375        1.17696
C         -1.86324       -0.66983       -1.13122
O         -1.26373       -0.08261        0.00304
C         -1.29331        0.34372        2.33909
C         -1.01987       -0.36665       -2.36781
H         -3.00498        0.11041        1.09187
H         -2.06859       -1.43500        1.38120
H         -1.95207       -1.77389       -1.02333
H         -2.86134       -0.20878       -1.30472
H         -0.02789       -0.86136       -2.29582
H         -1.53704       -0.74110       -3.27733
H         -0.86946        0.72931       -2.47576
H         -1.15678        1.42303        2.11039
H         -1.90504        0.24635        3.26015
H         -0.29830       -0.11810        2.50911
C          5.97290       -0.99705       -3.08670
C          6.23281        0.23279       -3.65550
C          5.48835        1.16169       -2.94944
C          4.81616        0.45154       -1.97373
N          5.10016       -0.84752       -2.07618
C          3.88268        0.99111       -0.92381
N          3.42627       -0.08261        0.00304
C          3.83276        0.07544        1.42127
H          6.88634        0.42413       -4.49594
H          6.38094       -1.94744       -3.40467
H          5.44934        2.22744       -3.12796
H          3.00063        1.43603       -1.42894
H          4.41483        1.80610       -0.39930
C          3.27307        1.37968        2.04027
C          3.23273       -1.09336        2.21299
C          5.36831        0.02845        1.56222
H          2.16603        1.41086        1.94950
H          3.53465        1.43486        3.11994
H          3.68516        2.29228        1.56846
H          3.61952       -2.05876        1.83683
H          3.49760       -1.01667        3.28837
H          2.12405       -1.08866        2.13214
H          5.77209       -0.88739        1.07975
H          5.84867        0.91120        1.09353
H          5.66155        0.02032        2.63451
Na         4.04213       -1.89609       -0.71156
C          5.50683       -5.83500        3.37296
C          3.60934       -4.95564        4.29392
O          4.69476       -4.67099        3.41602
C          6.75225       -5.65473        2.52424
C          2.61666       -3.80523        4.42519
H          5.88401       -6.05604        4.40172
H          4.94639       -6.71703        2.97868
H          3.04065       -5.85739        3.97037
H          4.01050       -5.11044        5.31646
H          2.06700       -3.63539        3.47462
H          1.87921       -4.06547        5.21059
H          3.13386       -2.87196        4.73869
H          7.31082       -4.74042        2.80957
H          7.41516       -6.53920        2.65307
H          6.47674       -5.62687        1.46554
C          0.88900       -6.72996        1.40706
C          0.20009       -6.73949        0.21259
C          0.53148       -5.58570       -0.47039
C          1.40768       -4.90371        0.26509
N          1.67205       -5.56184        1.49076
C          2.07424       -3.63724       -0.13618
N          3.54220       -3.77890       -0.15419
C          4.14996       -4.57778       -1.25854
H         -0.46142       -7.52223       -0.12564
H          0.86058       -7.49529        2.16298
H          0.18161       -5.29506       -1.45483
H          1.79251       -2.86861        0.60774
H          1.67548       -3.26632       -1.10493
C          3.64636       -4.14789       -2.65004
C          5.67420       -4.33054       -1.23367
C          3.91714       -6.08388       -1.05027
H          3.84874       -3.07329       -2.82678
H          4.16068       -4.72791       -3.44400
H          2.55870       -4.32721       -2.77397
H          6.10239       -4.58334       -0.26282
H          6.18369       -4.94572       -2.00935
H          5.91948       -3.27067       -1.41612
H          4.28217       -6.40783       -0.05155
H          2.85990       -6.36163       -1.15979
H          4.44859       -6.66770       -1.83540
