68
speciation113.ct
Na         5.00189        0.33416       -6.09180
Mg         1.83005        0.48191       -2.05239
C          2.24238        0.90856        0.98574
C          0.79678        2.45935       -0.13534
O          1.65800        1.33355       -0.25147
C          1.22566        0.55845        2.09283
C          1.47025        3.71789        0.44288
H          2.84404       -0.00182        0.79120
H          2.96424        1.66563        1.36343
H          0.45490        2.71558       -1.15596
H         -0.12070        2.20388        0.43675
H          2.35712        3.99885       -0.16214
H          0.74718        4.56120        0.43009
H          1.77685        3.57613        1.50053
H          0.53790       -0.24247        1.75362
H          1.76173        0.20460        3.00132
H          0.63140        1.44261        2.40877
C          2.02748       -2.60700       -1.65688
C          2.50813       -3.78479       -2.19322
C          3.14136       -3.46428       -3.36264
C          3.04382       -2.09689       -3.47156
N          2.34537       -1.54100       -2.44080
C          3.68124       -1.36786       -4.58548
N          4.64002       -0.38462       -4.10434
C          5.92938       -0.80122       -3.50468
H          2.42535       -4.79436       -1.79777
H          1.48336       -2.53286       -0.72754
H          3.65700       -4.13236       -4.04589
H          2.90080       -0.84032       -5.15861
H          4.16354       -2.04877       -5.31827
C          6.77091       -1.59747       -4.50924
C          6.68596        0.48378       -3.13441
C          5.74153       -1.59176       -2.19242
H          6.93064       -0.99963       -5.43201
H          7.76229       -1.83881       -4.07101
H          6.27655       -2.55181       -4.77986
H          6.10296        1.05546       -2.38388
H          7.67286        0.25170       -2.68083
H          6.85324        1.12170       -4.02655
H          5.09752       -1.02686       -1.48179
H          5.31028       -2.58956       -2.36299
H          6.72202       -1.76783       -1.70255
Na         3.71671        0.74750       -2.53105
C          0.94870        0.77981       -4.78845
C          0.74481        1.48228       -5.95199
C          1.11922        2.77210       -5.69135
C          1.56465        2.80234       -4.37612
N          1.46110        1.55646       -3.80802
C          2.05518        4.08884       -3.75245
N          3.45014        4.05343       -3.28336
C          4.55345        3.93829       -4.27620
H          0.37167        1.10413       -6.89349
H          0.74111       -0.27869       -4.66999
H          1.08989        3.60047       -6.38600
H          1.92916        4.93251       -4.46433
H          1.39416        4.30515       -2.88223
C          4.59400        5.07006       -5.31692
C          5.86354        3.96170       -3.46672
C          4.48057        2.62232       -5.02010
H          4.70885        6.05988       -4.83111
H          5.45946        4.91474       -6.00259
H          3.67983        5.07127       -5.94775
H          5.82121        3.21181       -2.65477
H          6.74131        3.73157       -4.11389
H          6.02322        4.95073       -2.99800
H          4.30180        1.85975       -4.27091
H          3.67173        2.58533       -5.77014
H          5.42310        2.42430       -5.57026
