110
speciation2229.ct
Na         0.97106        0.08221       -0.04904
Mg         4.83859       -6.37073        1.95606
C         -1.83179       -1.20551        0.29502
C         -1.92725        0.54889       -1.25768
O         -1.34894        0.08221       -0.04904
C         -1.54141       -2.29863       -0.75195
C         -1.36786        1.91564       -1.62347
H         -1.33079       -1.47941        1.24714
H         -2.91792       -1.17582        0.53068
H         -1.70534       -0.11543       -2.11870
H         -3.02720        0.65735       -1.12759
H         -0.28224        1.83910       -1.84620
H         -1.88696        2.29075       -2.53283
H         -1.52764        2.63715       -0.79664
H         -0.48767       -2.25874       -1.09243
H         -1.76205       -3.29398       -0.30903
H         -2.16558       -2.19119       -1.65673
H          6.52467       -7.47599        4.14907
C          4.63581       -7.69869        5.12715
C          5.57814       -6.90063        4.21379
C          3.38473       -6.85753        5.35154
H          4.36356       -8.67266        4.65781
H          5.13546       -7.92596        6.10023
H          3.65290       -5.85101        5.74713
H          2.92007       -6.73947        4.35291
C          2.38169       -7.49558        6.31072
H          5.91855       -6.07057        4.85088
H          2.39862       -8.60438        6.25844
H          2.58662       -7.17451        7.35551
H          1.36478       -7.14388        6.03695
C          2.03810       -5.33087        1.40705
C          0.90171       -4.65626        1.18668
C          1.26831       -3.38595        0.80583
C          2.66688       -3.24384        0.71364
N          3.14419       -4.63862        1.17295
C          3.28455       -1.63448        0.00767
N          3.34106        0.08221       -0.04904
C          3.90547        1.38457        0.27222
H         -0.07983       -5.12973        1.32515
H          2.08084       -6.37817        1.71620
H          0.54583       -2.65488        0.62616
H          4.20321       -1.95339       -0.47531
H          2.58801       -1.75480       -0.84613
C          5.43227        1.34952        0.20489
C          3.36949        2.35558       -0.80452
C          3.41001        1.84887        1.64626
H          5.76305        1.01895       -0.80360
H          5.84316        2.36692        0.38939
H          5.83895        0.65284        0.96425
H          2.25567        2.37414       -0.79877
H          3.73434        3.39199       -0.64524
H          3.68490        2.02561       -1.81985
H          2.29710        1.86797        1.66560
H          3.76670        1.16844        2.44454
H          3.77394        2.87825        1.85840
Na         4.13105       -1.20399        1.77813
Mg         3.94947       -1.95988        5.25905
C          6.15168       -9.29705        1.85035
C          4.96581       -8.73394       -0.10120
O          5.16767       -8.39713        1.26426
C          7.56598       -9.32013        1.22340
C          4.46356      -10.18592       -0.32566
H          6.27924       -9.07519        2.90122
H          5.77833      -10.33881        1.92239
H          4.18500       -8.06465       -0.48736
H          5.88521       -8.55587       -0.69953
H          3.51689      -10.37166        0.23339
H          4.28225      -10.35789       -1.40363
H          5.19857      -10.96505       -0.02295
H          8.02278       -8.31246        1.25129
H          8.23948      -10.00660        1.80161
H          7.56977       -9.69578        0.17915
H          3.70545       -1.12629        7.71803
C          2.04197       -2.50419        7.48804
C          2.95348       -1.41625        6.95436
C          0.99396       -2.86025        6.43331
H          2.65041       -3.39813        7.74333
H          1.54053       -2.13086        8.40851
H          0.40109       -1.95468        6.17384
H          1.50192       -3.22951        5.51546
C          0.04421       -3.93233        6.94901
H          2.35260       -0.51714        6.69861
H          0.60968       -4.85236        7.20663
H         -0.49253       -3.56550        7.85027
H         -0.70083       -4.17369        6.16256
C          6.44865       -5.32967        0.07029
C          6.62460       -4.02898       -0.30356
C          6.07302       -3.25649        0.70782
C          5.63733       -4.10483        1.72256
N          5.85182       -5.33497        1.25753
C          4.87067       -3.84008        3.09066
N          4.92104       -2.49018        3.60529
C          6.37332       -2.09976        3.97870
H          7.01261       -3.70095       -1.25348
H          6.61619       -6.21701       -0.52245
H          5.97023       -2.20054        0.65705
H          5.23318       -4.48303        3.85662
H          3.81626       -4.12328        3.17688
C          7.43075       -2.04320        2.83045
C          6.38757       -0.68153        4.55765
C          7.00106       -3.06135        5.02760
H          7.15181       -1.31077        2.05118
H          8.41753       -1.68424        3.18389
H          7.71604       -3.04290        2.44513
H          5.79611       -0.62266        5.48783
H          7.43623       -0.38260        4.80424
H          6.00522        0.04242        3.80728
H          6.41115       -3.09543        5.96132
H          7.13194       -4.08857        4.62628
H          8.03997       -2.74516        5.27422
