68
speciation31.ct
Na         1.08007        0.05972       -0.00478
Mg         4.61774       -3.01555        4.65120
C         -1.68924        1.26944        0.59176
C         -1.70967       -1.11837        0.63095
O         -1.23993        0.05972       -0.00478
C         -1.43843        1.39667        2.10019
C         -3.20948       -1.33974        0.42287
H         -1.12866        2.09114        0.09815
H         -2.75767        1.45190        0.35016
H         -1.19096       -1.97758        0.15701
H         -1.43708       -1.15971        1.70470
H         -3.44044       -1.39797       -0.66179
H         -3.51169       -2.29355        0.90449
H         -3.80474       -0.52420        0.88139
H         -0.36711        1.22082        2.32863
H         -1.71467        2.41957        2.43168
H         -2.06968        0.69028        2.67774
C          2.61454       -2.84639       -3.44862
C          3.19982       -3.57593       -2.43846
C          3.74759       -2.67511       -1.53722
C          3.50539       -1.44051       -1.98450
N          2.77802       -1.47606       -3.19499
C          3.98785       -0.15804       -1.36478
N          3.45007        0.05972       -0.00478
C          3.85147        1.35154        0.60890
H          3.23595       -4.65681       -2.38453
H          2.11240       -3.25502       -4.31509
H          4.30554       -2.93316       -0.65006
H          3.66875        0.65474       -2.04291
H          5.09474       -0.20980       -1.34379
C          3.29749        2.56032       -0.18302
C          3.25125        1.39466        2.02195
C          5.38848        1.47244        0.71942
H          2.19279        2.49478       -0.27927
H          3.55059        3.51184        0.33229
H          3.73730        2.63430       -1.19904
H          3.62464        0.54631        2.63243
H          3.52126        2.34440        2.53459
H          2.14332        1.33251        1.97190
H          5.81202        0.58992        1.24242
H          5.86330        1.55619       -0.28081
H          5.67080        2.38895        1.28033
Na         4.24006       -1.68430        1.39209
C          0.79723       -3.72730        3.25050
C          0.67916       -4.01065        1.90732
C          1.93712       -4.36268        1.44656
C          2.78850       -4.29699        2.47314
N          2.12968       -3.89471        3.65581
C          4.25163       -4.61430        2.40164
N          5.03005       -3.42831        2.78895
C          6.50279       -3.54845        2.67020
H         -0.23459       -3.96767        1.32976
H         -0.01151       -3.42135        3.90142
H          2.18546       -4.64531        0.43284
H          4.49061       -4.92100        1.36446
H          4.45315       -5.45652        3.09385
C          6.93935       -3.76710        1.20545
C          7.10881       -2.22228        3.16073
C          7.05274       -4.68680        3.55751
H          6.55191       -2.95091        0.55928
H          8.04841       -3.77550        1.13045
H          6.58638       -4.73929        0.80742
H          6.82535       -2.03238        4.21856
H          8.21893       -2.24543        3.09743
H          6.74091       -1.37395        2.54568
H          6.76710       -4.52659        4.61940
H          6.67711       -5.67842        3.23266
H          8.16239       -4.72368        3.49658
