95
speciation1669.ct
Na         1.32304        1.52254        0.37985
Mg        -2.33403        4.72836       -1.80309
C         -2.94937        2.22012       -1.05769
C         -4.77776        3.68010       -0.68379
O         -3.36050        3.51907       -0.67687
C         -3.28987        1.84237       -2.49691
C         -5.52288        2.87041        0.38025
H         -1.85187        2.19303       -0.96520
H         -3.32721        1.45323       -0.36006
H         -5.00057        4.74101       -0.45221
H         -5.22258        3.44720       -1.66610
H         -5.19411        3.16193        1.39802
H         -6.61065        3.08137        0.28222
H         -5.39625        1.77941        0.23713
H         -2.91773        2.61904       -3.19546
H         -2.80395        0.87338       -2.73593
H         -4.38097        1.69953       -2.62672
H         -4.57618        4.64752       -3.34957
C         -3.78500        6.47384       -4.10425
C         -3.97268        5.49686       -2.96435
C         -3.09309        5.82521       -5.29866
H         -4.79216        6.82596       -4.42533
H         -3.20578        7.34368       -3.73352
H         -2.09614        5.44120       -4.99624
H         -3.70783        4.97470       -5.67340
C         -2.93294        6.84986       -6.41508
H         -4.56459        6.03070       -2.19509
H         -3.92849        7.22940       -6.73415
H         -2.31904        7.70344       -6.05636
H         -2.43129        6.38320       -7.28670
C         -1.58160        0.49652        1.29012
C         -2.22641       -0.71322        1.26428
C         -1.34261       -1.61628        0.70765
C         -0.19288       -0.90317        0.41684
N         -0.34794        0.37312        0.76322
C          1.08354       -1.42172       -0.18393
N          2.05694       -0.31999       -0.39331
C          3.32661       -0.37777        0.35990
H         -3.23119       -0.89845        1.62221
H         -2.00518        1.41747        1.67347
H         -1.52401       -2.66696        0.53958
H          0.85058       -1.87072       -1.17280
H          1.46962       -2.21730        0.47849
C          4.13851       -1.65320        0.07008
C          4.17332        0.82138       -0.08612
C          3.04840       -0.25176        1.87142
H          4.35247       -1.73890       -1.01556
H          5.10634       -1.61249        0.61804
H          3.61472       -2.56712        0.40608
H          3.63005        1.76221        0.09607
H          5.12877        0.85656        0.47848
H          4.40713        0.76791       -1.17225
H          2.43891        0.64431        2.07585
H          2.48654       -1.12429        2.25704
H          3.99404       -0.15493        2.44450
Na         2.43061       -0.06881       -2.48805
Mg         3.76599        3.74967        0.01750
H          6.24134        4.14802        0.94898
C          6.53608        4.63082       -1.12894
C          5.89643        3.76724       -0.03458
C          6.15744        4.15612       -2.53509
H          6.20499        5.68111       -0.98598
H          7.64466        4.58696       -1.01884
H          6.50072        3.10909       -2.69228
H          5.05351        4.19104       -2.65601
C          6.80604        5.05140       -3.59033
H          6.28000        2.73556       -0.14765
H          6.47674        6.10366       -3.45374
H          7.91369        5.00627       -3.50665
H          6.51332        4.71594       -4.60716
C         -0.14273        6.59572       -2.54581
C          1.20993        6.87854       -2.54678
C          1.83583        5.81680       -1.94238
C          0.83669        4.92888       -1.60023
N         -0.38811        5.40441       -1.96227
C          1.08248        3.59278       -0.97967
N          1.79085        3.57663        0.30468
C          1.14643        4.11656        1.53051
H          1.68928        7.76007       -2.95710
H         -0.91114        7.23044       -2.96254
H          2.89812        5.69340       -1.78278
H          1.72174        3.02442       -1.70209
H          0.14454        3.03692       -0.91549
C         -0.22944        3.48423        1.75438
C          2.00587        3.74253        2.76538
C          0.98632        5.64651        1.50548
H         -0.06007        2.41948        1.93806
H         -0.73099        3.87134        2.66419
H         -0.91645        3.64428        0.89862
H          3.01482        4.20386        2.71727
H          1.51100        4.06705        3.70553
H          2.13466        2.64664        2.84096
H          1.97175        6.13865        1.39861
H          0.30835        5.96393        0.69348
H          0.52124        5.98685        2.46095
