68
speciation67.ct
Na         1.21644       -0.37572        0.62330
Mg         4.38401        4.63908        0.60821
C          0.50676       -2.00268        3.20325
C         -0.76280       -2.68881        1.31237
O         -0.11851       -1.59037        1.96054
C          1.65934       -3.00987        3.05468
C         -1.47577       -2.27306       -0.01156
H          0.96551       -1.08233        3.61384
H         -0.21275       -2.35464        3.98464
H         -0.05465       -3.51145        1.10017
H         -1.55705       -3.07441        1.95350
H         -0.78285       -2.11511       -0.86186
H         -2.12847       -3.11019       -0.35022
H         -2.11130       -1.37063        0.12771
H          2.30249       -2.71730        2.20587
H          2.27983       -3.02394        3.97294
H          1.31621       -4.05384        2.92382
C          2.94473        3.74220        2.90428
C          2.20283        2.69268        3.37671
C          2.26912        1.70301        2.41039
C          3.10629        2.16290        1.40348
N          3.45997        3.42815        1.70438
C          3.65924        1.40495        0.16827
N          2.64586        0.84479       -0.75643
C          3.16792        0.13970       -2.01255
H          1.66377        2.64785        4.31287
H          3.08809        4.69391        3.40041
H          1.76400        0.76946        2.46980
H          4.27351        0.56544        0.54659
H          4.33103        2.09867       -0.34270
C          4.01087       -1.15132       -1.77825
C          1.94465       -0.33813       -2.81338
C          4.04655        1.05180       -2.89569
H          3.41524       -1.96836       -1.33105
H          4.32487       -1.59700       -2.76172
H          4.97081       -0.95418       -1.26974
H          1.32814        0.51314       -3.15620
H          2.25307       -0.93661       -3.70191
H          1.31939       -1.00015       -2.17112
H          3.48897        1.94553       -3.22789
H          4.96404        1.35890       -2.35176
H          4.39362        0.49621       -3.79938
Na         3.84442        5.72742       -2.30346
C          2.62427        8.54746       -2.86509
C          2.64163        9.72800       -2.15166
C          3.39026        9.49613       -1.00709
C          3.80456        8.17728       -1.08025
N          3.32204        7.62145       -2.20479
C          4.65807        7.40887       -0.08286
N          4.92390        6.02444       -0.56490
C          6.29506        5.66024       -0.93272
H          2.15327       10.64791       -2.43969
H          2.12404        8.36309       -3.80598
H          3.60172       10.21221       -0.22276
H          4.10912        7.36036        0.88449
H          5.58803        7.97225        0.11560
C          7.23363        5.84010        0.27092
C          6.26266        4.16947       -1.31372
C          6.77139        6.46574       -2.15975
H          6.86402        5.23907        1.12866
H          8.25681        5.50112        0.01684
H          7.29233        6.89756        0.59439
H          5.58986        3.99028       -2.18026
H          7.27386        3.80142       -1.58277
H          5.88518        3.56482       -0.46488
H          6.06692        6.32072       -3.00977
H          6.84042        7.54986       -1.95069
H          7.77910        6.11756       -2.47948
