66
speciation225.ct
Na         4.64952       -3.91983       -1.53348
Mg         6.71647       -1.26505       -1.26393
H          9.12409       -1.44239       -2.14706
C          9.29499        0.12057       -0.66548
C          8.54872       -0.55366       -1.81019
C         10.68773        0.57965       -1.11733
H          8.70484        0.98705       -0.29971
H          9.40104       -0.61638        0.16012
H         11.26383       -0.29298       -1.49785
H         10.59250        1.32528       -1.93736
C         11.46444        1.20447        0.03740
H          8.41223        0.13759       -2.66887
H         10.93387        2.10247        0.41818
H         11.58094        0.46991        0.86285
H         12.47464        1.50653       -0.31180
C          2.60505       -0.02254       -4.32059
C          2.61429       -1.38553       -4.49565
C          3.04320       -1.93038       -3.32317
C          3.29654       -0.88788       -2.45128
N          3.03592        0.30709       -3.07928
C          3.75055       -1.03315       -1.01865
N          4.92913       -1.95901       -0.73107
C          5.23220       -2.05152        0.72358
H          2.32541       -1.91923       -5.38360
H          2.31596        0.69964       -5.06231
H          3.15210       -2.99113       -3.10353
H          2.87146       -1.42514       -0.49527
H          3.95745       -0.00152       -0.69508
C          4.13258       -2.83876        1.45879
C          6.56053       -2.82367        0.86284
C          5.43290       -0.65587        1.40431
H          3.97205       -3.82341        0.97125
H          4.44160       -3.02064        2.51186
H          3.17544       -2.28223        1.49207
H          7.39002       -2.26970        0.37196
H          6.84560       -2.95253        1.92888
H          6.49343       -3.81893        0.37725
H          6.40664       -0.19661        1.12576
H          4.65504        0.09744        1.19519
H          5.38723       -0.74421        2.50874
Mg         2.98597        2.33083       -2.83986
C          3.37893        3.70360       -5.65904
C          4.59526        4.16005       -6.15379
C          5.50128        4.11072       -5.10926
C          4.77247        3.67961       -4.03576
N          3.55107        3.31812       -4.39085
C          5.10656        3.65733       -2.55816
N          3.82924        3.68155       -1.76821
C          3.05280        4.95257       -1.55116
H          4.79961        4.46991       -7.16887
H          2.46582        3.59754       -6.22424
H          6.54899        4.37598       -5.13973
H          5.76029        4.50227       -2.26501
H          5.64085        2.70954       -2.34383
C          2.43223        5.58261       -2.82633
C          1.88121        4.58804       -0.62334
C          3.90479        6.03552       -0.85411
H          1.75243        4.87872       -3.34849
H          1.80347        6.46074       -2.53973
H          3.19938        5.96773       -3.52639
H          2.25797        4.15616        0.32750
H          1.25823        5.47755       -0.37885
H          1.22827        3.83226       -1.11521
H          4.33235        5.65897        0.09644
H          4.72301        6.38933       -1.51394
H          3.27566        6.92599       -0.61810
