95
speciation1825.ct
Na         0.61457        0.53976       -6.98311
Mg         7.12479       -3.24067       -1.07611
C          7.76859       -4.55439        1.30768
C          8.63410       -5.59690       -0.61374
O          7.56552       -4.83813       -0.06741
C          9.02242       -3.72086        1.61106
C          8.39491       -5.87848       -2.08755
H          6.88534       -3.97895        1.65243
H          7.76663       -5.49286        1.90527
H          9.60230       -5.06062       -0.55790
H          8.69966       -6.58156       -0.09769
H          8.36866       -4.92306       -2.65632
H          9.22403       -6.49654       -2.49329
H          7.44634       -6.43833       -2.22780
H          9.03889       -2.80237        0.98875
H          9.02407       -3.43523        2.68324
H          9.95064       -4.30485        1.43765
H          9.93899       -2.63930       -2.01111
C         11.46630       -1.25085       -2.64933
C         10.01093       -1.72617       -2.64154
C         11.98220       -0.98258       -1.23196
H         12.09744       -2.04686       -3.10573
H         11.54567       -0.33573       -3.27446
H         11.35135       -0.21822       -0.74381
H         11.92434       -1.91161       -0.62402
C         13.43407       -0.50180       -1.25407
H          9.72567       -2.01174       -3.67594
H         14.09584       -1.28599       -1.68231
H         13.52926        0.42384       -1.86133
H         13.77192       -0.28170       -0.21920
C         -1.63229        2.46648       -5.80306
C         -1.54677        3.43894       -4.82592
C         -0.22446        3.48501       -4.42556
C          0.44124        2.54339       -5.17942
N         -0.41570        1.92989       -6.01450
C          1.92819        2.22626       -5.10711
N          2.37752        1.28332       -6.16476
C          3.05761        1.88471       -7.33766
H         -2.35548        4.04892       -4.44628
H         -2.53539        2.15611       -6.31418
H          0.20163        4.14083       -3.67493
H          2.13724        1.78007       -4.10783
H          2.47903        3.17996       -5.14587
C          4.40432        2.53142       -6.94678
C          3.33244        0.75797       -8.34505
C          2.15406        2.93711       -8.03105
H          5.05895        1.79217       -6.43900
H          4.92760        2.90509       -7.85338
H          4.27793        3.40709       -6.27999
H          2.38301        0.29462       -8.68749
H          3.86611        1.14945       -9.24027
H          3.95951       -0.03161       -7.88028
H          1.19260        2.48325       -8.34994
H          1.92774        3.79128       -7.35794
H          2.65562        3.34958       -8.93337
Na         3.21534       -0.71976       -5.21469
Mg         8.41132       -0.44784       -2.03857
H          8.08148        2.10934       -1.11491
C         10.17008        2.43809       -1.36321
C          8.99749        1.48785       -1.04790
C         10.13925        2.97469       -2.79646
H         10.11895        3.30066       -0.65596
H         11.13416        1.92465       -1.19184
H         10.22079        2.12342       -3.50185
H          9.18448        3.51233       -2.98523
C         11.30185        3.94142       -3.04326
H          9.11116        1.19718        0.01822
H         11.21505        4.83555       -2.38595
H         12.27505        3.44292       -2.84327
H         11.29200        4.28273       -4.10050
C          3.36018       -3.87325       -4.18692
C          4.10184       -4.82924       -3.52985
C          5.29216       -4.22798       -3.18661
C          5.23115       -2.93256       -3.65090
N          4.05316       -2.72284       -4.26462
C          6.29614       -1.88159       -3.50949
N          6.67269       -1.60203       -2.11080
C          5.71424       -0.95982       -1.18694
H          3.80032       -5.84591       -3.31439
H          2.36125       -4.00560       -4.58062
H          6.09834       -4.68061       -2.65010
H          7.19783       -2.26847       -4.02851
H          6.00194       -0.94802       -4.02858
C          4.45035       -1.80937       -0.97352
C          6.43942       -0.88173        0.17521
C          5.35312        0.45438       -1.65953
H          4.72978       -2.85147       -0.69530
H          3.83114       -1.39244       -0.15096
H          3.80596       -1.82842       -1.86884
H          7.40137       -0.35800        0.07261
H          5.81875       -0.35653        0.93662
H          6.66446       -1.89360        0.54717
H          6.25535        1.08585       -1.69529
H          4.90408        0.44467       -2.67007
H          4.62497        0.92224       -0.96230
