81
speciation748.ct
Na         6.09489       -1.37144       -0.13686
Mg         2.80806       -1.25673       -0.91158
C          0.92738       -1.62872       -2.97406
C          0.31226       -2.59971       -0.91251
O          1.37393       -2.23848       -1.77359
C          0.15843       -0.31471       -2.79151
C          0.87476       -3.21639        0.35934
H          1.83501       -1.40573       -3.57395
H          0.33147       -2.34753       -3.57775
H         -0.29477       -1.72430       -0.60245
H         -0.32705       -3.36555       -1.40601
H          1.47843       -2.46421        0.90888
H          0.03938       -3.54714        1.01323
H          1.51116       -4.09293        0.11709
H          0.74271        0.39463       -2.18621
H         -0.02717        0.14333       -3.78543
H         -0.82772       -0.47508       -2.31266
H          1.05491        1.39429        6.68644
C          3.01252        0.50362        6.90031
C          1.61198        0.52774        6.26792
C          3.77328        1.77466        6.52023
H          2.93655        0.43323        8.01214
H          3.56003       -0.39237        6.53711
H          3.79893        1.85234        5.41371
H          3.24264        2.65967        6.93596
C          5.21082        1.77412        7.03620
H          1.07515       -0.39099        6.59409
H          5.23872        1.73720        8.14603
H          5.76911        0.90636        6.62489
H          5.71432        2.70605        6.70021
C          2.78821       -2.07582        4.03932
C          3.66777       -2.96501        3.44518
C          4.21620       -2.30002        2.36906
C          3.64329       -1.04388        2.34629
N          2.76787       -0.90734        3.38509
C          4.01706        0.07838        1.41721
N          4.27914       -0.24968       -0.02735
C          4.49742        1.00411       -0.81825
H          3.88965       -3.96508        3.77149
H          2.20569       -2.28281        4.93329
H          4.95957       -2.68809        1.69194
H          4.92722        0.51067        1.86513
H          3.22473        0.82611        1.54009
C          5.68167        1.84991       -0.28073
C          4.82006        0.60157       -2.26258
C          3.23615        1.90428       -0.83750
H          6.61443        1.25036       -0.24640
H          5.85223        2.73635       -0.92977
H          5.48023        2.25873        0.73162
H          3.98709        0.01352       -2.70099
H          4.97870        1.50688       -2.89133
H          5.74857       -0.00607       -2.29603
H          2.35528        1.31643       -1.13438
H          3.02722        2.37534        0.14362
H          3.35942        2.75131       -1.54542
Mg         1.61168        0.64515        4.04109
C          0.60351        1.48465        1.49886
C         -0.04645        2.36460        0.66554
C         -0.53112        3.37138        1.47072
C         -0.15419        3.05432        2.76484
N          0.56928        1.89510        2.78396
C         -0.51718        3.90858        3.94304
N         -1.99000        3.99876        4.02920
C         -2.54828        4.91440        5.05390
H         -0.15899        2.28877       -0.40648
H          1.07896        0.57571        1.16524
H         -1.09616        4.23680        1.14414
H         -0.09377        3.45625        4.85990
H         -0.07493        4.91202        3.77096
C         -2.21099        6.38748        4.73881
C         -4.08391        4.76792        5.03065
C         -2.05232        4.54422        6.46481
H         -2.58734        6.66605        3.73051
H         -2.69125        7.06160        5.48320
H         -1.12197        6.58140        4.78004
H         -4.38540        3.72240        5.25487
H         -4.55703        5.43244        5.78903
H         -4.49430        5.04165        4.03444
H         -2.31435        3.49006        6.69911
H         -0.95491        4.67132        6.55424
H         -2.52426        5.20164        7.22724
