81
speciation800.ct
Na         0.81145       -0.66210        0.43769
Mg         2.16835       -0.08981        1.52930
C          4.59045       -0.01817        3.37412
C          2.55461        0.45082        4.51015
O          3.16412        0.05530        3.28889
C          5.30316        1.24261        3.91723
C          1.05036        0.59836        4.34162
H          4.90052       -0.91006        3.96023
H          4.97448       -0.16249        2.34491
H          2.74358       -0.30567        5.30395
H          2.90590        1.45307        4.83374
H          0.59529       -0.36655        4.04641
H          0.60718        0.93432        5.30519
H          0.82489        1.36980        3.57818
H          5.10255        1.39805        4.99764
H          6.40210        1.12641        3.80858
H          5.01384        2.15604        3.36555
H          6.75828       -2.57486       -5.61859
C          8.02310       -3.67514       -4.23912
C          6.92638       -2.61673       -4.52162
C          8.55394       -3.73623       -2.78853
H          7.67743       -4.67444       -4.56608
H          8.88679       -3.38161       -4.86428
H          9.45249       -4.39453       -2.79963
H          8.88198       -2.72836       -2.45622
C          7.59486       -4.33403       -1.76554
H          7.29175       -1.61872       -4.19939
H          6.68586       -3.71325       -1.64749
H          7.31499       -5.37006       -2.05465
H          8.11444       -4.39247       -0.77831
C         -2.38306       -1.27390        0.48843
C         -3.39754       -0.33265        0.41666
C         -2.78916        0.89835        0.28319
C         -1.43149        0.64189        0.26262
N         -1.19382       -0.64948        0.40976
C         -0.29364        1.58596       -0.00049
N          0.86696        1.46050        0.94305
C          1.89415        2.52085        0.65796
H         -4.46293       -0.53025        0.45699
H         -2.50978       -2.33727        0.60172
H         -3.28088        1.85909        0.17801
H         -0.71395        2.60172       -0.07731
H          0.05547        1.29205       -1.00947
C          1.35114        3.94155        1.00029
C          3.11109        2.31131        1.55085
C          2.45484        2.46694       -0.78640
H          1.64569        4.26102        2.02412
H          1.75351        4.70441        0.29950
H          0.25434        4.02766        1.01800
H          3.59610        1.34774        1.31069
H          3.87523        3.10340        1.40024
H          2.79810        2.35141        2.61088
H          3.03601        1.54555       -0.92745
H          1.69327        2.56215       -1.57996
H          3.19565        3.28080       -0.94226
Mg         4.99724       -2.76153       -3.87426
C          2.22337       -3.58129       -3.98993
C          0.94022       -3.33045       -3.55337
C          1.05091       -2.45715       -2.49491
C          2.40491       -2.23156       -2.31331
N          3.11539       -2.90278       -3.24276
C          2.98599       -1.30753       -1.28653
N          2.49956       -1.56952        0.07954
C          2.66551       -2.89760        0.72250
H          0.02408       -3.70858       -3.98653
H          2.48778       -4.17844       -4.85208
H          0.23728       -2.02038       -1.93087
H          2.62314       -0.33044       -1.59658
H          4.10144       -1.31334       -1.33052
C          4.14801       -3.11058        1.03149
C          1.83810       -2.86520        2.00849
C          2.13681       -4.09099       -0.10766
H          4.52589       -2.28991        1.66607
H          4.29981       -4.07307        1.56747
H          4.74153       -3.13181        0.09481
H          0.76295       -2.69550        1.77304
H          1.92056       -3.82380        2.56509
H          2.16578       -2.05312        2.67852
H          1.06539       -3.95319       -0.36798
H          2.73817       -4.28575       -1.01391
H          2.20808       -5.02939        0.48302
