96
speciation1017.ct
Na         0.82655        1.77145        0.51283
Mg         2.88993       -1.52918       -5.81770
C          1.17765        2.31180        3.83469
C         -0.32635        3.71541        2.68685
O          0.80455        2.86116        2.55132
C          0.07860        1.57708        4.63754
C         -0.01727        4.98165        3.50452
H          1.99418        1.60556        3.69142
H          1.67805        3.07113        4.46974
H         -0.64137        4.03790        1.67553
H         -1.20424        3.17946        3.10769
H          0.80865        5.54942        3.02919
H         -0.91971        5.62400        3.56262
H          0.26726        4.74347        4.55136
H         -0.47476        0.84300        4.01856
H          0.54878        1.02576        5.48180
H         -0.64643        2.28908        5.08037
H          2.15277       -4.05940       -5.54411
C          0.35263       -2.90032       -5.88939
C          1.70791       -3.08755       -5.23347
C         -0.26492       -1.56665       -5.45737
H          0.49504       -2.90946       -6.99040
H         -0.32013       -3.73949       -5.60295
H         -0.41581       -1.56435       -4.35512
H          0.42038       -0.73292       -5.72540
C         -1.60908       -1.33973       -6.14166
H          1.60584       -3.08924       -4.12776
H         -1.47755       -1.30438       -7.24453
H         -2.31748       -2.15553       -5.88364
H         -2.03982       -0.37346       -5.80395
C         -2.04671        0.58027        0.34904
C         -2.49938       -0.61943       -0.15310
C         -1.38058       -1.32545       -0.56813
C         -0.28180       -0.52680       -0.29734
N         -0.70809        0.61686        0.26439
C          1.19594       -0.87903       -0.59133
N          2.24500        0.03300       -0.00400
C          2.61163       -0.34872        1.39338
H         -3.53447       -0.92903       -0.22495
H         -2.65697        1.39184        0.72547
H         -1.37879       -2.30956       -1.01583
H          1.30654       -0.89354       -1.69399
H          1.36594       -1.92482       -0.27825
C          3.30422       -1.72081        1.54406
C          3.57444        0.74138        1.88225
C          1.35185       -0.43985        2.29623
H          4.21305       -1.80261        0.92363
H          3.58587       -1.86332        2.61491
H          2.61937       -2.56569        1.32134
H          3.11079        1.74559        1.77843
H          3.87015        0.57582        2.94091
H          4.49277        0.74421        1.26017
H          0.73844        0.45538        2.20775
H          0.68587       -1.28233        2.01866
H          1.61449       -0.59941        3.36281
Mg         3.38218        0.08335       -1.63630
C          1.94294        3.51281       -1.19146
C         -0.28114        3.66531       -1.93669
O          0.67929        2.89657       -1.21779
C          1.93232        4.81546       -0.40856
C         -1.64285        2.97779       -1.98685
H          2.60049        2.80760       -0.64269
H          2.38365        3.60409       -2.20636
H         -0.44819        4.66823       -1.49519
H          0.04980        3.76088       -2.99699
H         -2.09269        2.95350       -0.97609
H         -2.32951        3.55952       -2.64378
H         -1.55949        1.94924       -2.39660
H          1.38405        4.68896        0.54450
H          2.97744        5.12350       -0.18142
H          1.46114        5.63085       -0.99841
C          4.35441        0.38433       -7.51947
C          4.97283        1.61564       -7.52080
C          4.87136        2.11418       -6.23842
C          4.20813        1.14160       -5.50195
N          3.87897        0.10221       -6.28775
C          3.89804        1.22888       -4.04160
N          4.51935        0.13370       -3.26860
C          6.00556        0.13337       -3.11889
H          5.45730        2.10065       -8.36285
H          4.25626       -0.27214       -8.37462
H          5.26127        3.05857       -5.88188
H          2.79524        1.13610       -3.94142
H          4.17610        2.20901       -3.62072
C          6.52772        1.46107       -2.53316
C          6.36962       -1.01279       -2.16365
C          6.74142       -0.15270       -4.45428
H          6.04195        1.67952       -1.56000
H          7.62826        1.40971       -2.38040
H          6.34663        2.30701       -3.22893
H          6.04891       -1.98761       -2.59239
H          7.47081       -1.05471       -2.00395
H          5.87554       -0.87691       -1.17994
H          6.36031       -1.08211       -4.92967
H          6.66687        0.67790       -5.17267
H          7.83282       -0.27279       -4.28229
