95
speciation1222.ct
Na         1.03099        1.61748        0.23031
Mg         0.77529        7.72012       -0.19944
C         -1.18788        0.16685        2.34030
C         -1.53325        2.49905        2.47663
O         -0.86921        1.45307        1.73258
C         -2.69415       -0.21681        2.38686
C         -1.29911        2.55893        4.01595
H         -0.70518       -0.64303        1.77759
H         -0.75048        0.06736        3.35686
H         -1.23429        3.47250        2.06077
H         -2.62762        2.43662        2.29500
H         -0.26337        2.84099        4.27682
H         -1.95722        3.33721        4.45770
H         -1.56314        1.62711        4.56332
H         -3.13024       -0.28557        1.36524
H         -2.82898       -1.21174        2.87379
H         -3.31461        0.47857        2.99268
H          3.31759        7.68198        0.40269
C          3.17729        9.42231        1.65717
C          2.70449        8.60705        0.42757
C          2.99546        8.70365        3.00162
H          4.26994        9.60964        1.53378
H          2.67620       10.41324        1.69362
H          3.49671        7.71186        2.97438
H          3.48031        9.30554        3.80546
C          1.52524        8.54341        3.36130
H          2.96811        9.21267       -0.46465
H          1.05265        9.54483        3.46003
H          1.00077        7.95857        2.57912
H          1.43333        8.01334        4.33222
C          0.16847       -1.32641       -0.56799
C          0.67078       -2.56784       -0.22801
C          1.82955       -2.34665        0.49664
C          1.97722       -0.97468        0.57852
N          0.96605       -0.36956       -0.06400
C          3.06254       -0.22780        1.32594
N          2.90917        1.24803        1.19612
C          3.24060        2.05206        2.39501
H          0.21808       -3.52488       -0.44857
H         -0.76382       -1.13373       -1.08170
H          2.46484       -3.10113        0.94376
H          4.05214       -0.51688        0.90965
H          3.03004       -0.57059        2.37452
C          4.66438        1.75577        2.91331
C          3.16939        3.55018        2.02543
C          2.21013        1.76843        3.49633
H          5.42524        2.00355        2.14443
H          4.86849        2.37138        3.81804
H          4.78542        0.69515        3.21384
H          3.65944        4.17454        2.80646
H          2.11943        3.90228        1.93236
H          3.69504        3.74259        1.06677
H          1.21347        1.90350        3.04826
H          2.25757        0.73110        3.87980
H          2.32967        2.45509        4.35898
Na         4.30284        1.72212       -0.36344
Mg         1.05842        6.90917       -3.53430
H         -0.43252        9.71737        1.41591
C         -2.32810        8.92145        0.71255
C         -0.82626        9.29020        0.47251
C         -2.43718        7.82029        1.78204
H         -2.91363        9.81992        1.01292
H         -2.77566        8.56256       -0.23753
H         -1.75310        7.02858        1.45056
H         -2.09096        8.20224        2.76724
C         -3.80323        7.12366        1.94099
H         -0.79197       10.09503       -0.29436
H         -4.56904        7.67000        2.53630
H         -4.23053        6.85748        0.95057
H         -3.61130        6.17772        2.49310
C          1.79178        2.08809       -3.08851
C          2.13132        2.89932       -4.17221
C          2.30299        4.17446       -3.67556
C          2.06847        4.07914       -2.31261
N          1.74587        2.77594       -1.92578
C          2.09940        5.30706       -1.44597
N          0.93716        6.19536       -1.70858
C         -0.40320        5.56209       -1.59737
H          2.22341        2.62890       -5.22727
H          1.58268        1.04539       -3.19417
H          2.55376        5.04925       -4.23403
H          2.13583        5.01254       -0.38000
H          3.04345        5.84803       -1.64527
C         -0.52836        4.97005       -0.18562
C         -1.41243        6.67238       -1.84344
C         -0.77432        4.50049       -2.67415
H         -0.23396        5.73077        0.56522
H         -1.54786        4.59684        0.01014
H          0.16626        4.11113       -0.05663
H         -1.35551        7.01918       -2.89996
H         -2.44594        6.31630       -1.64006
H         -1.16870        7.52321       -1.21761
H         -0.56373        4.86902       -3.70254
H         -1.85298        4.25286       -2.60525
H         -0.33654        3.51479       -2.54432
