95
speciation1439.ct
Na         0.30821        1.20727       -0.17165
Mg        -6.09500        1.01577        1.52232
C          1.98742        3.12417       -1.82611
C          0.59224        4.36326       -0.37373
O          0.84459        3.11932       -0.99665
C          3.29986        3.39244       -1.07825
C          0.31384        5.49471       -1.37330
H          2.01251        2.14173       -2.27985
H          1.86833        3.79010       -2.70576
H         -0.33325        4.24973        0.19743
H          1.38850        4.63455        0.35205
H         -0.50409        5.19726       -2.06391
H          0.00819        6.40722       -0.82311
H          1.21833        5.75285       -1.96236
H          3.39786        2.70699       -0.21088
H          4.15852        3.23730       -1.76461
H          3.34592        4.44510       -0.72858
H         -8.11180       -0.07217        0.35267
C         -8.83616        0.24711        2.36546
C         -7.74548       -0.18612        1.39381
C         -8.36791        0.09601        3.81438
H         -9.09833        1.30870        2.16288
H         -9.73594       -0.38335        2.19536
H         -8.09197       -0.96369        4.00867
H         -7.47537        0.73616        3.98617
C         -9.46977        0.49844        4.79068
H         -7.47097       -1.24835        1.56507
H         -9.76330        1.55748        4.62929
H        -10.36094       -0.15155        4.65471
H         -9.10405        0.38385        5.83278
C         -4.95029        3.68361        1.57726
C         -3.77343        4.40008        1.57992
C         -2.75576        3.47427        1.59359
C         -3.35082        2.23383        1.57182
N         -4.69173        2.35928        1.58012
C         -2.61561        0.92580        1.52480
N         -1.88444        0.71396        0.23577
C         -2.68478        0.48344       -0.99371
H         -3.67062        5.47744        1.57132
H         -5.94598        4.10363        1.55944
H         -1.70455        3.67521        1.61549
H         -3.30323        0.08471        1.72606
H         -1.92383        0.94132        2.38070
C         -3.36068        1.77941       -1.46674
C         -1.72270        0.04201       -2.11835
C         -3.73090       -0.64289       -0.79524
H         -2.60412        2.58702       -1.56857
H         -3.85282        1.62319       -2.45220
H         -4.16054        2.11433       -0.79700
H         -1.23073       -0.92520       -1.89178
H         -2.27940       -0.10189       -3.07261
H         -0.93850        0.81161       -2.28422
H         -3.22841       -1.59562       -0.52133
H         -4.47294       -0.39459       -0.01408
H         -4.30505       -0.80728       -1.73290
Na        -0.43010       -0.77262        0.10767
Mg         0.59063       -3.07087       -2.09356
H          0.78398       -5.67308       -1.98416
C         -0.70152       -5.29087       -3.51355
C         -0.07805       -4.99263       -2.15689
C         -1.83398       -4.30241       -3.79610
H          0.07243       -5.20026       -4.30938
H         -1.08634       -6.33368       -3.50899
H         -2.58477       -4.34897       -2.97788
H         -1.41678       -3.27188       -3.84114
C         -2.53297       -4.61987       -5.11392
H         -0.82210       -5.13283       -1.34778
H         -1.81266       -4.58066       -5.95828
H         -2.99045       -5.63153       -5.06947
H         -3.33667       -3.87517       -5.29349
C          1.75569       -0.98088       -3.72835
C          2.71112        0.01105       -3.73251
C          3.20785        0.08020       -2.44694
C          2.49839       -0.83383       -1.70106
N          1.64777       -1.51153       -2.49520
C          2.69224       -1.08892       -0.23624
N          1.53833       -0.61198        0.57719
C          1.62838       -0.82738        2.04351
H          3.02313        0.60755       -4.57954
H          1.19281       -1.31766       -4.58913
H          3.98330        0.74269       -2.09250
H          3.59357       -0.52134        0.08294
H          2.88039       -2.16758       -0.10072
C          2.78677       -0.02085        2.65661
C          0.33351       -0.32175        2.67689
C          1.76138       -2.32668        2.39613
H          2.66475        1.05918        2.42081
H          2.78384       -0.13504        3.76497
H          3.77137       -0.36628        2.29084
H         -0.54104       -0.89655        2.30064
H          0.33872       -0.44097        3.78181
H          0.21703        0.75578        2.43987
H          0.88548       -2.89702        2.01409
H          2.68421       -2.77775        1.98542
H          1.80205       -2.46054        3.49975
