95
speciation1526.ct
Na        -1.83112        5.26097        5.95526
Mg         2.27569        5.54735       -4.96229
C          2.07284        8.36051       -5.79634
C          1.69808        7.91421       -3.49336
O          1.61590        7.40700       -4.82670
C          3.39094        9.10655       -5.51000
C          0.67163        9.01832       -3.21668
H          2.20570        7.82346       -6.75365
H          1.27293        9.10957       -5.98500
H          1.46220        7.09494       -2.81162
H          2.72169        8.22616       -3.21383
H         -0.35391        8.64995       -3.42925
H          0.73025        9.31668       -2.14745
H          0.87240        9.92081       -3.83037
H          4.23205        8.40566       -5.37353
H          3.63898        9.75301       -6.38587
H          3.31872        9.78106       -4.63479
H          4.85147        6.42593       -4.78923
C          5.33687        4.50511       -4.01756
C          4.33979        5.65962       -4.17703
C          5.74612        3.89804       -5.36223
H          6.25715        4.90379       -3.52152
H          4.89890        3.72911       -3.35857
H          4.84557        3.49212       -5.86504
H          6.20222        4.68180       -6.00772
C          6.76227        2.77204       -5.17533
H          4.17915        6.08727       -3.16453
H          7.69676        3.15775       -4.70901
H          6.34153        1.97214       -4.53097
H          7.02050        2.33377       -6.16271
C         -3.14441        7.15556       -0.03801
C         -3.81966        8.14017        0.65121
C         -3.55626        7.94007        1.99033
C         -2.73011        6.83234        2.06179
N         -2.47585        6.36005        0.81870
C         -2.15057        6.24885        3.32731
N         -3.13489        5.86581        4.36834
C         -4.04058        4.71212        4.12964
H         -4.42871        8.92475        0.22085
H         -3.13042        7.03211       -1.11211
H         -3.92073        8.54346        2.81330
H         -1.50167        7.03351        3.77107
H         -1.49315        5.39612        3.08068
C         -3.23411        3.41775        3.90896
C         -4.91350        4.51823        5.38700
C         -4.99564        4.96281        2.94652
H         -2.57704        3.22154        4.78438
H         -3.91524        2.54852        3.78778
H         -2.60493        3.47770        2.99956
H         -5.52803        5.42299        5.59100
H         -5.61458        3.66285        5.25037
H         -4.29388        4.30885        6.28438
H         -5.55597        5.91125        3.09944
H         -4.45549        5.00522        1.98461
H         -5.72669        4.13183        2.85247
Na        -4.19811        7.49325        5.26417
Mg        -1.31682        4.83942        0.20710
H          3.14090        5.71958       -7.57999
C          1.30886        4.85526       -8.31227
C          2.41202        4.96809       -7.21401
C          0.46735        6.13817       -8.42811
H          1.77337        4.62100       -9.29638
H          0.63774        3.99903       -8.10229
H          0.03497        6.38547       -7.43826
H          1.10835        6.98409       -8.75236
C         -0.69823        5.98432       -9.41053
H          2.92037        3.98225       -7.18424
H         -0.33101        5.83553      -10.44764
H         -1.34265        5.12431       -9.12460
H         -1.32470        6.90310       -9.38540
C         -0.15819        2.12071        0.10777
C          0.78727        1.30978       -0.48773
C          1.44174        2.08368       -1.41970
C          0.85786        3.33790       -1.36605
N         -0.10109        3.36608       -0.40737
C          1.21966        4.49919       -2.26122
N          1.11963        4.18825       -3.70753
C         -0.25294        3.86279       -4.20664
H          0.96255        0.26061       -0.27711
H         -0.85267        1.81714        0.87938
H          2.23052        1.76174       -2.08370
H          0.59123        5.35785       -1.98118
H          2.27977        4.75695       -2.04069
C         -1.25345        5.00961       -3.93854
C         -0.14940        3.68640       -5.70049
C         -0.83198        2.52450       -3.67643
H         -0.86318        5.96516       -4.34980
H         -2.23315        4.79410       -4.41865
H         -1.44236        5.13535       -2.85376
H          0.57286        2.87886       -5.95979
H         -1.13174        3.45259       -6.17351
H          0.18655        4.65313       -6.07545
H         -0.11207        1.69222       -3.83650
H         -1.12805        2.56819       -2.61650
H         -1.77159        2.26369       -4.21090
