70
speciation983.ct
Na         0.86924       -0.28615        0.04306
Mg        -1.87907        2.72890       -4.54657
C          1.47605        0.44373        2.88361
C          2.11342       -1.83655        2.63022
O          1.30033       -0.76236        2.13974
C          2.93539        0.88277        3.11819
C          1.58035       -2.40966        3.95730
H          0.99259        1.25125        2.29956
H          0.92359        0.39719        3.84691
H          2.14586       -2.66311        1.90901
H          3.17868       -1.56339        2.71574
H          0.58873       -2.88715        3.80956
H          2.28685       -3.17555        4.34327
H          1.48722       -1.62680        4.73852
H          3.48734        0.90725        2.15522
H          2.95774        1.89104        3.57813
H          3.45863        0.21276        3.83470
H         -3.32596        2.28453       -6.72521
C         -4.18838        0.99243       -5.19889
C         -2.98675        1.63358       -5.89106
C         -5.13608        2.05837       -4.63992
H         -4.73344        0.36099       -5.93481
H         -3.81959        0.34542       -4.37556
H         -4.59435        2.70297       -3.91443
H         -5.51302        2.69320       -5.47184
C         -6.33147        1.41842       -3.93569
H         -2.32634        0.84058       -6.29943
H         -6.89871        0.77342       -4.64054
H         -5.99017        0.80531       -3.07437
H         -7.01215        2.21137       -3.55838
C         -1.10023        5.20441       -3.16660
C         -0.36679        5.68813       -2.10006
C          0.24491        4.60301       -1.50446
C         -0.14778        3.49520       -2.23258
N         -0.96978        3.86342       -3.24458
C          0.23192        2.07589       -1.92158
N         -0.21520        1.62961       -0.59042
C         -1.69202        1.54893       -0.36085
H         -0.29886        6.71898       -1.78187
H         -1.71436        5.79173       -3.82978
H          0.88639        4.61232       -0.63674
H          1.33298        1.99742       -1.98210
H         -0.17368        1.39427       -2.71406
C         -2.36730        0.58188       -1.35580
C         -1.88588        1.02865        1.06755
C         -2.42192        2.92009       -0.42789
H         -1.87137       -0.41034       -1.33556
H         -3.44343        0.45461       -1.10831
H         -2.32655        0.98206       -2.39158
H         -1.42270        1.73505        1.79101
H         -2.96764        0.94526        1.31208
H         -1.41604        0.03210        1.18815
H         -1.92765        3.67217        0.22350
H         -2.50764        3.31602       -1.45143
H         -3.47909        2.81985       -0.10181
C          1.79105       -1.32675       -2.72887
C          0.73144       -3.05059       -1.53212
O          1.06424       -1.67513       -1.56267
C          0.89141       -1.28758       -3.96788
C         -0.00624       -3.37607       -0.25082
H          2.20661       -0.31063       -2.57262
H          2.67209       -1.99152       -2.89377
H          0.02935       -3.30806       -2.35363
H          1.64725       -3.68294       -1.58152
H         -0.95626       -2.80761       -0.19365
H         -0.21363       -4.46554       -0.20059
H          0.61162       -3.10478        0.60699
H         -0.00370       -0.66643       -3.76544
H          1.44607       -0.86243       -4.82961
H          0.56107       -2.30732       -4.25454
