96
speciation1091.ct
Na         0.35035       -4.87249        0.84297
Mg         2.34518        0.09771       -2.36555
C          1.65175       -7.82679        0.75885
C          0.57304       -7.18608       -1.13757
O          0.50672       -7.11942        0.28686
C          1.75791       -7.83919        2.27225
C         -0.54927       -6.42186       -1.82012
H          1.56879       -8.89746        0.45351
H          2.60242       -7.40574        0.35394
H          1.53094       -6.75795       -1.51828
H          0.48018       -8.24543       -1.47355
H         -0.47925       -5.33819       -1.59706
H         -0.43971       -6.55798       -2.92183
H         -1.53774       -6.81941       -1.51625
H          0.82686       -8.23575        2.72514
H          2.60098       -8.51026        2.55598
H          1.97483       -6.82168        2.65386
H          0.77828        2.32805       -1.70664
C          0.91025        1.78626        0.37600
C          1.00431        1.41423       -1.12336
C          1.89095        2.84221        0.84329
H         -0.13134        2.14767        0.60768
H          1.09454        0.91626        1.01241
H          2.89664        2.56231        0.54062
H          1.61378        3.81598        0.39807
C          1.92606        2.91326        2.36695
H          0.18339        0.73629       -1.27601
H          0.91509        3.07026        2.79597
H          2.34134        1.96094        2.77116
H          2.59684        3.73868        2.68245
C          3.67672       -2.43226       -1.53469
C          3.72151       -3.51890       -0.68939
C          2.59547       -3.45210        0.06505
C          1.88874       -2.34385       -0.35461
N          2.58718       -1.66906       -1.31148
C          0.54994       -1.93215        0.15072
N          0.19061       -2.57714        1.41106
C         -1.04729       -2.05461        2.07237
H          4.49104       -4.27867       -0.62877
H          4.42064       -2.22711       -2.27074
H          2.33664       -4.16099        0.86052
H         -0.20149       -2.10712       -0.63553
H          0.65394       -0.88586        0.31484
C         -2.29642       -2.63949        1.38482
C         -1.01937       -2.45353        3.55344
C         -1.19182       -0.50277        2.03617
H         -2.27287       -3.74437        1.40973
H         -3.22156       -2.28787        1.89823
H         -2.35591       -2.30165        0.32759
H         -0.17185       -1.94046        4.06575
H         -1.95989       -2.14424        4.06508
H         -0.89387       -3.54780        3.66836
H         -0.34588       -0.00697        2.55632
H         -1.27488       -0.11386        0.99964
H         -2.12847       -0.18409        2.54793
Mg        -2.27019       -0.30939       -6.52398
C          5.34471        0.70261       -3.65698
C          4.85275        1.49123       -1.50532
O          4.31592        0.86113       -2.65333
C          6.41557       -0.38987       -3.43925
C          5.39500        0.51433       -0.45758
H          4.88025        0.48437       -4.61340
H          5.86885        1.66604       -3.88377
H          5.64314        2.25522       -1.73861
H          4.05066        2.09700       -1.08450
H          6.31218        0.00419       -0.81055
H          5.66840        1.06855        0.46474
H          4.62947       -0.23860       -0.19683
H          6.09155       -1.19755       -2.78545
H          6.67706       -0.84347       -4.42262
H          7.35026        0.03683       -3.02552
C         -3.38022        0.36402       -3.90888
C         -3.14013        0.31387       -2.55585
C         -1.91127       -0.28287       -2.39915
C         -1.41279       -0.53351       -3.66623
N         -2.34481       -0.17457       -4.57871
C         -0.06203       -1.15013       -4.01858
N          1.10599       -0.21471       -4.12847
C          1.04044        0.79533       -5.24509
H         -3.79472        0.66566       -1.77062
H         -4.25834        0.78189       -4.38021
H         -1.46232       -0.49597       -1.44928
H         -0.18005       -1.72388       -4.96101
H          0.17165       -1.93231       -3.26837
C         -0.02996        1.89537       -5.05611
C          2.38438        1.50297       -5.29380
C          0.82115        0.12405       -6.62955
H          0.00137        2.33963       -4.04421
H          0.11604        2.70635       -5.80619
H         -1.04232        1.55406       -5.28895
H          3.13335        0.75399       -5.57259
H          2.40940        2.29232       -6.07897
H          2.60975        1.97064       -4.31158
H          1.60841       -0.63356       -6.83683
H         -0.16465       -0.37257       -6.70356
H          0.85027        0.88174       -7.44424
