110
speciation2674.ct
Na         0.20879        0.30304       -0.16142
Li        -6.06956        1.63855        1.93108
C         -8.61011        2.03015        2.92277
C         -8.77172        1.22406        0.73047
O         -7.99435        1.23946        1.92877
C         -9.84018        1.34834        3.52517
C         -7.96472        0.65335       -0.42144
H         -7.87495        2.14509        3.74132
H         -8.85842        3.05618        2.56626
H         -9.64928        0.55399        0.86050
H         -9.14971        2.22903        0.43873
H         -7.65635       -0.38494       -0.18573
H         -8.59436        0.63698       -1.34134
H         -7.06815        1.27731       -0.61308
H         -9.58016        0.31844        3.84488
H        -10.19298        1.92625        4.40465
H        -10.66903        1.30673        2.78873
H          4.56782       -3.89353       -0.83418
C          5.42197       -5.36329       -2.15896
C          4.20859       -4.61522       -1.59925
C          6.40546       -4.43890       -2.87926
H          5.95033       -5.85912       -1.31052
H          5.06247       -6.14936       -2.85476
H          5.89158       -3.93947       -3.72344
H          6.78012       -3.65808       -2.18231
C          7.59424       -5.23426       -3.41998
H          3.57197       -5.35711       -1.07042
H          8.16063       -5.70442       -2.58748
H          7.24376       -6.03098       -4.11120
H          8.27916       -4.55613       -3.97424
C         -5.05996       -1.08437        2.29669
C         -4.00620       -1.96356        2.24417
C         -2.90964       -1.23962        1.82156
C         -3.35771        0.05505        1.62554
N         -4.68406        0.15465        1.92764
C         -2.49690        1.18872        1.12906
N         -1.84265        0.92341       -0.17360
C         -2.62940        0.69265       -1.40195
H         -4.01921       -3.02140        2.48355
H         -6.07842       -1.34174        2.58137
H         -1.91448       -1.62888        1.66931
H         -1.69982        1.38142        1.87824
H         -3.09914        2.11245        1.06366
C         -3.54553        1.90000       -1.66588
C         -1.63830        0.55631       -2.57253
C         -3.45154       -0.60987       -1.33725
H         -2.93358        2.82526       -1.75452
H         -4.11765        1.76075       -2.60571
H         -4.27382        2.04144       -0.84139
H         -0.94911       -0.30019       -2.40375
H         -2.18292        0.37368       -3.52472
H         -1.02634        1.47567       -2.68673
H         -2.79122       -1.47684       -1.11615
H         -4.25904       -0.56060       -0.58750
H         -3.96522       -0.79088       -2.30347
Na         0.08719       -0.01927       -0.13689
Li         2.82470       -3.52336       -2.86263
C         -4.41161        3.51161        3.23534
C         -5.94846        4.52403        1.76848
O         -5.22477        3.35097        2.08116
C         -5.18488        3.77645        4.53260
C         -6.74087        4.30224        0.49935
H         -3.84659        2.56774        3.37305
H         -3.64350        4.30071        3.06944
H         -6.67038        4.79243        2.56853
H         -5.24705        5.36547        1.57130
H         -7.46465        3.50631        0.68448
H         -7.29867        5.22212        0.22679
H         -6.07801        3.99680       -0.33510
H         -5.95774        2.99916        4.68513
H         -4.48260        3.74924        5.39247
H         -5.65563        4.78116        4.52785
H          1.38511       -5.36567       -4.18270
C          2.24519       -4.24852       -5.84249
C          1.66261       -4.32059       -4.42797
C          3.53958       -5.04900       -5.95782
H          1.49388       -4.64190       -6.56244
H          2.45189       -3.19284       -6.10838
H          4.28380       -4.62776       -5.25035
H          3.35354       -6.11189       -5.69565
C          4.10821       -4.97569       -7.37348
H          0.73886       -3.70134       -4.40823
H          3.40362       -5.43902       -8.09749
H          4.28731       -3.91947       -7.66905
H          5.07288       -5.52310       -7.41611
C          2.41045       -0.84058       -4.07823
C          2.41611        0.50308       -3.77683
C          2.68762        0.60504       -2.42947
C          2.81376       -0.69243       -1.96611
N          2.67041       -1.56957       -2.97918
C          3.08631       -1.11024       -0.55764
N          2.10668       -0.52404        0.37465
C          2.21086       -0.84025        1.81233
H          2.24128        1.31855       -4.46693
H          2.22618       -1.25410       -5.05804
H          2.76802        1.51511       -1.85394
H          4.10561       -0.76662       -0.28799
H          3.04874       -2.21484       -0.52894
C          3.49812       -0.23390        2.39134
C          1.00956       -0.18162        2.51386
C          2.16127       -2.36153        2.08672
H          3.52401        0.85917        2.18803
H          3.53042       -0.38399        3.49182
H          4.40210       -0.70263        1.95489
H          0.06157       -0.58967        2.11109
H          1.01827       -0.37455        3.60659
H          1.00721        0.91599        2.33950
H          1.17772       -2.78982        1.79620
H          2.95956       -2.90983        1.54842
H          2.31723       -2.55857        3.16993
