110
speciation2263.ct
Na         7.48680        5.07514       -3.59574
Mg         2.64238        5.14280       -1.18897
C          9.00014        5.30780       -6.17825
C          7.17405        6.82520       -6.28080
O          7.62759        5.53776       -5.86479
C          9.98851        6.36136       -5.64505
C          7.44294        7.15516       -7.76369
H          9.28142        4.33395       -5.72507
H          9.13371        5.16896       -7.27203
H          6.07817        6.80691       -6.20617
H          7.54147        7.64037       -5.61713
H          6.71765        7.91912       -8.11670
H          8.45998        7.57503       -7.90996
H          7.32699        6.25212       -8.39869
H          9.91146        6.45433       -4.54293
H         11.02392        6.05306       -5.90704
H          9.82843        7.35712       -6.10458
H          3.71597        7.47910       -1.06659
C          4.95230        6.26306       -2.42307
C          4.07776        6.44353       -1.19807
C          4.21155        6.52883       -3.71000
H          5.84244        6.91719       -2.34087
H          5.27915        5.20975       -2.48151
H          4.90203        6.33597       -4.53979
H          3.41471        5.78360       -3.79128
C          3.67569        7.95548       -3.80039
H          4.64636        6.13749       -0.29951
H          2.89285        8.13012       -3.03341
H          4.50630        8.67669       -3.65369
H          3.21898        8.12624       -4.79513
C          8.28768        5.17613       -0.50953
C          8.04384        4.92303        0.81445
C          6.89717        4.17306        0.84881
C          6.47179        3.95552       -0.43690
N          7.34296        4.60255       -1.27780
C          5.25945        3.00366       -0.68802
N          3.91713        3.36882       -1.32053
C          2.90794        2.31281       -0.98600
H          8.63030        5.25102        1.66203
H          9.10956        5.76192       -0.89822
H          6.39647        3.80099        1.70137
H          5.69456        2.15808       -1.24522
H          5.08495        2.56455        0.30769
C          2.56762        2.42980        0.53751
C          1.61925        2.57485       -1.77553
C          3.35257        0.85926       -1.39168
H          1.66632        3.03231        0.73571
H          2.66692        1.48129        1.10376
H          3.28216        3.07164        1.07316
H          1.79002        2.49987       -2.87004
H          0.81477        1.85407       -1.50526
H          1.25116        3.56315       -1.50299
H          4.23691        0.83766       -2.05394
H          3.50895        0.19813       -0.51591
H          2.57873        0.33450       -2.00251
Na         5.40108        5.99731        3.84037
Mg         4.36756        3.09368       -3.20263
C          6.89725        5.77256        6.50052
C          7.32566        3.76970        5.38487
O          6.38520        4.81963        5.58020
C          8.10954        6.55809        5.97311
C          6.75679        2.66928        4.51618
H          6.08441        6.49707        6.71156
H          7.13772        5.29577        7.47791
H          8.25650        4.12365        4.89232
H          7.56425        3.29245        6.36105
H          6.64046        3.05418        3.51425
H          7.47113        1.82036        4.45794
H          5.77199        2.31950        4.88079
H          7.87280        7.02992        4.99751
H          8.38297        7.34925        6.70190
H          9.00425        5.91217        5.85768
H          0.08886        4.81203       -2.74014
C          0.98625        5.52494       -4.51704
C          0.92834        5.50915       -2.95676
C          1.41861        4.17566       -5.11254
H         -0.01737        5.77983       -4.93248
H          1.65888        6.32736       -4.87059
H          2.39207        3.87301       -4.67797
H          0.65449        3.40487       -4.87041
C          1.59107        4.23788       -6.63435
H          0.54990        6.51313       -2.66781
H          0.64169        4.51732       -7.13897
H          2.37771        4.97535       -6.90433
H          1.90948        3.24182       -7.01202
C          0.34192        5.29586        0.72767
C         -0.16678        5.53941        1.98552
C          0.86038        6.00253        2.74218
C          1.98984        6.02753        1.92932
N          1.66794        5.58767        0.67651
C          3.33605        6.27406        2.57562
N          4.39576        7.20037        2.06305
C          4.88056        8.51455        2.38086
H         -1.18365        5.35639        2.32566
H         -0.23594        4.88938       -0.08081
H          0.81690        6.22137        3.80275
H          3.22560        6.42555        3.67274
H          3.82151        5.26291        2.47576
C          4.94771        8.70451        3.90650
C          6.26909        8.51839        1.69459
C          4.01590        9.58917        1.71915
H          5.75303        8.08992        4.35648
H          5.12170        9.76126        4.18370
H          3.98470        8.39889        4.36697
H          6.13062        8.31469        0.60129
H          6.83202        9.46264        1.79329
H          6.89215        7.66799        2.06109
H          3.98673        9.44009        0.61645
H          2.98242        9.57411        2.11349
H          4.47183       10.58653        1.90977
