80
speciation974.ct
Na         1.07403        0.04876       -0.04627
Mg        -2.24989        1.72941       -0.62282
H         -1.98151        4.07796        0.66511
C         -3.54172        4.59859       -0.75145
C         -2.26625        3.82984       -0.37594
C         -4.78748        4.22245        0.06725
H         -3.34823        5.68717       -0.62143
H         -3.76554        4.41968       -1.82503
H         -5.62936        4.85670       -0.29181
H         -5.05711        3.15950       -0.10786
C         -4.62385        4.46514        1.56788
H         -1.44775        4.18544       -1.03618
H         -3.86214        3.78032        1.99366
H         -4.32847        5.51812        1.76362
H         -5.58868        4.26824        2.08206
C         -4.05730        0.94560       -2.92936
C         -4.26587       -0.27135       -3.55417
C         -3.44989       -1.19066       -2.92081
C         -2.78362       -0.49134       -1.93468
N         -3.14843        0.79319       -1.95417
C         -1.78256       -1.02926       -0.94715
N         -1.29597        0.04876       -0.04627
C         -1.70596       -0.04034        1.37360
H         -4.94019       -0.46372       -4.37686
H         -4.53925        1.88312       -3.17315
H         -3.35901       -2.24660       -3.14536
H         -0.91839       -1.43141       -1.51543
H         -2.25120       -1.86854       -0.40164
C         -1.19009       -1.33138        2.04611
C         -1.07009        1.15186        2.10866
C         -3.23987        0.06663        1.50510
H         -0.08675       -1.38891        1.95928
H         -1.45361       -1.33274        3.12627
H         -1.62722       -2.25067        1.61189
H         -1.41356        2.10746        1.67132
H         -1.34232        1.14885        3.18648
H          0.03790        1.11588        2.02766
H         -3.60254        1.01234        1.04674
H         -3.75232       -0.78006        1.00498
H         -3.54122        0.06417        2.57485
Na         3.88880        0.05562        2.04523
Mg         1.83480       -3.41601       -2.73125
H          2.91258       -3.45565       -5.16601
C          0.81603       -3.03513       -5.52005
C          1.92043       -3.81002       -4.81245
C          0.91812       -1.55985       -5.13464
H          0.91418       -3.15501       -6.62407
H         -0.16891       -3.44222       -5.20608
H          0.86033       -1.46416       -4.02777
H          1.89659       -1.16051       -5.47952
C         -0.20444       -0.73457       -5.75055
H          1.83185       -4.89001       -5.07060
H         -0.19304       -0.82476       -6.85738
H         -1.18836       -1.07489       -5.36235
H         -0.06340        0.33195       -5.47576
C          1.21879       -3.93799        0.10998
C          1.53398       -3.60808        1.41109
C          2.45431       -2.58753        1.34996
C          2.65644       -2.32865        0.01288
N          1.90457       -3.16419       -0.75338
C          3.64043       -1.34290       -0.54616
N          3.44403        0.04876       -0.04627
C          4.43584        0.99919       -0.65494
H          1.14964       -4.07449        2.30707
H          0.54273       -4.72375       -0.19487
H          2.93428       -2.10401        2.18964
H          3.51714       -1.39459       -1.64590
H          4.63888       -1.72291       -0.26280
C          4.32503        1.06511       -2.19915
C          4.19262        2.41283       -0.10586
C          5.89367        0.61121       -0.27019
H          3.30159        1.36799       -2.50492
H          5.04782        1.80539       -2.60626
H          4.58212        0.10603       -2.68999
H          4.30440        2.43537        0.99870
H          4.94047        3.12066       -0.53398
H          3.18119        2.77870       -0.37839
H          6.01435        0.58875        0.83390
H          6.20581       -0.36951       -0.67790
H          6.61928        1.34589       -0.68089
