83
speciation333.ct
Na         0.92081       -0.10770       -0.14637
Mg         1.20156        2.11357        2.67821
C         -0.80636       -2.86916        0.61037
C          0.96577       -2.39008        2.11797
O          0.39121       -2.10477        0.83987
C         -1.92382       -2.81923        1.68806
C          1.49425       -3.83079        2.27431
H         -1.25201       -2.54547       -0.34955
H         -0.53354       -3.93321        0.44485
H          1.84079       -1.74584        2.26144
H          0.28110       -2.12196        2.94711
H          2.31496       -4.02983        1.55440
H          1.89432       -3.96613        3.30310
H          0.70306       -4.59648        2.14331
H         -2.39529       -1.82663        1.75995
H         -2.73961       -3.51683        1.40656
H         -1.58652       -3.14528        2.69399
C          2.58369        4.84828        2.88126
C          2.67445        5.79336        1.87229
C          1.99416        5.28298        0.78510
C          1.51870        4.05051        1.18126
N          1.88695        3.78424        2.44223
C          0.71623        3.07646        0.32784
N          0.29349        1.82173        1.03516
C         -1.11365        1.82231        1.50378
H          3.19006        6.74360        1.91311
H          3.02732        4.92560        3.86374
H          1.86698        5.75104       -0.18355
H          1.40110        2.80865       -0.48850
H         -0.14266        3.61531       -0.11673
C         -2.11363        1.82659        0.32463
C         -1.27974        0.53991        2.30314
C         -1.42674        2.99698        2.46022
H         -1.86964        1.02899       -0.40540
H         -3.14882        1.66482        0.69852
H         -2.13063        2.80166       -0.20212
H         -0.62682        0.54117        3.20371
H         -2.33094        0.38090        2.62222
H         -0.94742       -0.28325        1.65852
H         -0.73711        2.99119        3.33266
H         -1.34309        3.98085        1.95754
H         -2.46347        2.90701        2.85689
Na         3.47226        2.00433       -0.81170
C         -0.14563       -0.99337       -3.24769
C          0.33047        1.31618       -2.92822
O          0.09881        0.06948       -2.28985
C          0.85452       -1.17560       -4.42552
C         -0.82625        1.81601       -3.81540
H         -0.21792       -1.95777       -2.70674
H         -1.15511       -0.84142       -3.68563
H          0.41031        2.07142       -2.14671
H          1.28795        1.32341       -3.48676
H         -1.76382        1.90220       -3.22819
H         -0.57174        2.82494       -4.21506
H         -1.00241        1.16583       -4.69878
H          1.83488       -1.56775       -4.12516
H          0.46320       -1.94298       -5.12402
H          1.00837       -0.25370       -5.02339
C          5.12715        3.51177        1.46828
C          5.50145        3.07980        2.72738
C          5.03303        1.78716        2.85877
C          4.39772        1.48626        1.67098
N          4.45464        2.53555        0.83716
C          3.71490        0.17259        1.34545
N          3.18798        0.09042       -0.05067
C          4.00710       -0.74203       -0.96389
H          6.04683        3.64623        3.47026
H          5.31778        4.48669        1.04435
H          5.14503        1.14063        3.71990
H          2.87849        0.08332        2.05835
H          4.43592       -0.63716        1.56765
C          4.04604       -2.23405       -0.54805
C          3.33032       -0.65588       -2.30852
C          5.44188       -0.18712       -1.12191
H          3.01774       -2.63790       -0.44177
H          4.57310       -2.83126       -1.32582
H          4.59475       -2.40828        0.39680
H          3.27130        0.39493       -2.66161
H          3.86303       -1.26157       -3.07315
H          2.31159       -1.04675       -2.14997
H          5.41982        0.86953       -1.46531
H          6.01161       -0.23576       -0.17294
H          6.00098       -0.77279       -1.88509
