110
speciation2192.ct
Na         1.09260        1.43279        0.56228
Mg         3.56766        0.50779       -1.73305
C          2.25735        3.60071        2.67344
C          0.86091        2.11079        3.79654
O          1.14693        2.70795        2.51802
C          1.97520        4.78822        3.61904
C         -0.17507        0.98400        3.71181
H          3.17662        3.07063        3.00870
H          2.48816        4.04795        1.69395
H          1.78291        1.71900        4.29080
H          0.40889        2.84790        4.48368
H          0.11875        0.13990        3.06370
H         -0.31700        0.56472        4.73116
H         -1.13227        1.38755        3.33700
H          1.84407        4.45853        4.67068
H          2.83976        5.48555        3.62444
H          1.06872        5.34094        3.29358
H          1.84932        0.66021       -4.94302
C          3.53027        0.11885       -5.93049
C          2.90032        0.93488       -4.74076
C          3.59195       -1.42450       -5.88212
H          3.00931        0.40811       -6.87091
H          4.57811        0.38004       -6.03782
H          4.11723       -1.77966       -6.79606
H          4.24990       -1.72568       -5.05088
C          2.25240       -2.16207       -5.84031
H          2.97759        2.01628       -4.96523
H          1.63869       -1.87037       -4.97919
H          1.65578       -1.95824       -6.74946
H          2.44528       -3.25707       -5.77368
C         -1.93170        0.44093        0.47758
C         -2.42675       -0.83108        0.29142
C         -1.33326       -1.67298        0.20183
C         -0.21455       -0.86766        0.32109
N         -0.58923        0.40719        0.48165
C          1.23893       -1.33069        0.37872
N          2.28716       -0.24376        0.20031
C          3.31046       -0.33260        1.25657
H         -3.47025       -1.10886        0.23249
H         -2.52123        1.34071        0.58827
H         -1.35690       -2.74545        0.06469
H          1.46873       -2.26156       -0.15067
H          1.24157       -1.79892        1.36747
C          4.06848       -1.67535        1.16192
C          4.12350        0.93825        1.06590
C          2.75976       -0.26423        2.66541
H          4.40593       -1.86917        0.15958
H          4.87357       -1.73686        1.92338
H          3.38681       -2.53258        1.40289
H          3.46411        1.82642        1.13072
H          4.94526        1.06032        1.79793
H          4.46110        0.96080        0.04718
H          2.12020        0.57259        2.57509
H          2.18963       -1.13629        3.02917
H          3.55938       -0.08058        3.41174
Na         3.30037        2.80354       -1.48934
Mg         4.61405        0.71993       -3.68508
C          6.31912       -0.87317       -1.38676
C          6.29235        1.50271       -1.52837
O          5.61345        0.30197       -1.83578
C          6.89727       -0.83801        0.05389
C          7.67863        1.58853       -2.14285
H          5.64072       -1.73152       -1.48385
H          7.13942       -1.14054       -2.08721
H          5.66267        2.32629       -1.94423
H          6.37622        1.67493       -0.44180
H          7.62909        1.44835       -3.23014
H          8.11749        2.56946       -1.87876
H          8.35918        0.81426       -1.74727
H          6.18641       -0.45397        0.77547
H          7.18833       -1.85564        0.38943
H          7.77587       -0.17576        0.15498
H          6.77057        2.46332       -4.82605
C          5.26621        3.87858       -5.35406
C          5.70747        2.41733       -5.09195
C          5.24095        4.75730       -4.10173
H          5.96290        4.34732       -6.09446
H          4.25702        3.88966       -5.81853
H          4.88872        5.77562       -4.37980
H          4.52519        4.31868       -3.37773
C          6.61458        4.90747       -3.45275
H          5.76852        2.00889       -6.12173
H          6.52928        5.50718       -2.52405
H          7.33695        5.39478       -4.14146
H          7.01005        3.92418       -3.17951
C          3.19021       -2.04461       -2.83451
C          1.99601       -2.62816       -2.52286
C          1.06761       -1.60811       -2.43069
C          1.72175       -0.41337       -2.60223
N          3.02521       -0.72181       -2.96511
C          0.94877        1.02033       -2.50283
N          1.28042        2.10966       -1.50362
C          0.44332        3.34692       -1.66674
H          1.81725       -3.68665       -2.37961
H          4.12351       -2.56536       -2.99646
H          0.01597       -1.73206       -2.20087
H         -0.09004        0.70716       -2.29559
H          0.85357        1.51648       -3.47180
C         -1.07016        3.06421       -1.85175
C          0.58006        4.21008       -0.39985
C          0.92232        4.22269       -2.85082
H         -1.46274        2.51631       -0.98578
H         -1.64718        4.01231       -1.92223
H         -1.28565        2.49717       -2.77913
H          1.64347        4.47437       -0.24675
H          0.00501        5.15995       -0.48200
H          0.18860        3.66583        0.48087
H          1.95454        4.59485       -2.67919
H          0.89292        3.68594       -3.81765
H          0.26556        5.11702       -2.95719
