80
speciation905.ct
Na         1.28922        1.88470        0.01249
Mg         6.99846       -4.05756       -4.48544
H          4.66237       -5.24411       -3.69370
C          5.56875       -5.44797       -1.73987
C          5.67992       -5.35757       -3.27741
C          4.99605       -4.20037       -1.03668
H          4.90534       -6.31099       -1.47947
H          6.57045       -5.66293       -1.31098
H          4.99325       -4.39235        0.05803
H          5.65626       -3.33036       -1.23376
C          3.56458       -3.88828       -1.45988
H          6.05806       -6.34792       -3.61282
H          3.50633       -3.64386       -2.54058
H          2.89428       -4.74631       -1.23506
H          3.19783       -3.01055       -0.89669
C         -1.79858        1.12461       -0.02825
C         -2.41345       -0.11082       -0.06185
C         -1.41800       -1.06269       -0.07875
C         -0.22351       -0.37255       -0.04962
N         -0.46509        0.95135       -0.02269
C          1.16598       -0.99014       -0.04349
N          2.24500        0.03300       -0.00400
C          3.14786        0.02940        1.16652
H         -3.48478       -0.29208       -0.07410
H         -2.28463        2.08890       -0.00764
H         -1.54891       -2.13744       -0.10045
H          1.27905       -1.58428       -0.97168
H          1.22386       -1.69162        0.81156
C          3.94512       -1.28797        1.26137
C          4.15413        1.17849        0.96975
C          2.36538        0.28464        2.47187
H          4.52637       -1.45422        0.32930
H          4.66232       -1.24601        2.11005
H          3.28855       -2.16453        1.43244
H          3.62847        2.15385        0.89354
H          4.86920        1.23240        1.81979
H          4.73901        1.02908        0.03613
H          1.81169        1.24519        2.40912
H          1.63719       -0.52366        2.68258
H          3.06272        0.34088        3.33670
Na         3.59933        0.09296       -1.94799
Mg         5.81081        1.90278       -3.79871
H          8.56261       -4.68676       -6.43304
C          6.89459       -4.99853       -7.72528
C          7.53598       -5.09450       -6.32629
C          5.52256       -5.67480       -7.84498
H          6.82990       -3.93676       -8.04744
H          7.57010       -5.52315       -8.43947
H          5.20165       -5.64240       -8.91136
H          5.60540       -6.74377       -7.54686
C          4.45992       -4.97931       -7.01006
H          7.63665       -6.16634       -6.05669
H          4.74203       -5.00533       -5.94455
H          4.35117       -3.92410       -7.33725
H          3.48689       -5.49933       -7.13856
C          8.74046       -1.78724       -5.28616
C          8.95871       -0.42735       -5.20334
C          7.95678        0.08715       -4.42411
C          7.14673       -0.98326       -4.08697
N          7.62898       -2.13796       -4.59835
C          5.87298       -0.85801       -3.32620
N          4.95365        0.15292       -3.89199
C          4.47116       -0.07843       -5.30653
H          9.75251        0.13862       -5.67938
H          9.35837       -2.47955       -5.83714
H          7.80273        1.12640       -4.17154
H          6.13305       -0.53348       -2.29465
H          5.37424       -1.84364       -3.23728
C          3.76439       -1.43976       -5.45811
C          3.48922        1.04488       -5.67388
C          5.59222       -0.00674       -6.39052
H          2.90717       -1.51934       -4.76106
H          3.39128       -1.56555       -6.50006
H          4.46934       -2.27722       -5.27139
H          4.00071        2.03175       -5.62438
H          3.12485        0.91354       -6.72040
H          2.61243        1.05193       -4.99986
H          6.16966        0.94028       -6.32386
H          6.27650       -0.87165       -6.37564
H          5.15947       -0.05603       -7.41399
