96
speciation1747.ct
Na         1.00809        0.06973        0.07122
Mg        -2.20373        1.79213       -0.62031
C         -4.66885        3.30096       -0.28539
C         -3.40142        3.49886        1.70258
O         -3.62243        2.73686        0.50527
C         -4.52051        4.79129       -0.64033
C         -4.54002        3.37015        2.72462
H         -4.70745        2.74111       -1.23469
H         -5.65671        3.11272        0.18891
H         -2.52812        3.14937        2.23984
H         -3.14862        4.55583        1.49749
H         -4.67729        2.30821        3.01900
H         -4.28338        3.95386        3.63541
H         -5.49688        3.77064        2.33481
H         -3.54295        4.97358       -1.13145
H         -5.33869        5.09050       -1.32743
H         -4.62424        5.44451        0.25170
H          3.89318       -3.35114        2.89254
C          5.99304       -2.84564        3.01646
C          4.72141       -3.07324        2.20619
C          5.80464       -1.72093        4.03947
H          6.24293       -3.79017        3.54849
H          6.82496       -2.58981        2.32652
H          5.58479       -0.77347        3.50806
H          4.95496       -1.95926        4.71734
C          7.06135       -1.52877        4.88335
H          4.87608       -3.90535        1.48753
H          7.28050       -2.45074        5.46358
H          7.92963       -1.29079        4.23318
H          6.90847       -0.69005        5.59507
C         -3.66272        1.12474       -3.20917
C         -3.80388       -0.07148       -3.87398
C         -3.16315       -1.02881       -3.10986
C         -2.64700       -0.36017       -2.01648
N         -2.96586        0.93902       -2.07635
C         -1.83814       -0.96823       -0.89140
N         -1.36191        0.06973        0.07122
C         -1.57873       -0.27565        1.49968
H         -4.30307       -0.22929       -4.81895
H         -4.02863        2.09151       -3.54423
H         -3.06538       -2.08302       -3.33276
H         -0.95258       -1.49140       -1.31024
H         -2.47970       -1.73801       -0.42090
C         -0.90152       -1.61244        1.89231
C         -0.89192        0.80749        2.32704
C         -3.08576       -0.34471        1.83972
H          0.19034       -1.57535        1.68722
H         -1.03760       -1.80569        2.97977
H         -1.32238       -2.47913        1.34672
H         -1.14759        1.78661        1.94114
H         -1.12254        0.71784        3.41075
H          0.19788        0.75243        2.19830
H         -3.61883        0.55782        1.50045
H         -3.57761       -1.22097        1.37453
H         -3.23403       -0.44629        2.93753
Mg         4.04142       -1.48226        1.12546
C         -0.28288        2.39445       -2.60198
C         -0.07290        3.41539       -0.45617
O         -0.94830        2.94758       -1.45567
C          0.75680        1.29195       -2.36433
C          0.87517        4.52568       -0.95169
H         -1.04562        1.96408       -3.27307
H          0.17134        3.20639       -3.20483
H         -0.68286        3.86738        0.34940
H          0.43585        2.55626        0.01861
H          0.28036        5.37470       -1.34840
H          1.50852        4.89444       -0.11665
H          1.56168        4.16654       -1.74574
H          0.29211        0.41188       -1.89895
H          1.17021        0.94764       -3.33528
H          1.60251        1.65779       -1.76306
C          3.26794       -2.87147       -3.57597
C          2.48630       -3.24271       -2.50456
C          2.63471       -2.27029       -1.52247
C          3.47024       -1.34194       -1.98559
N          3.91626       -1.66404       -3.28511
C          3.94400       -0.10217       -1.28348
N          3.37809        0.06973        0.07122
C          3.94689        1.24832        0.79832
H          1.88051       -4.13673       -2.45180
H          3.37778       -3.41521       -4.50337
H          2.15126       -2.27429       -0.55593
H          3.68488        0.75960       -1.92814
H          5.04837       -0.18934       -1.23160
C          3.55715        2.58779        0.13541
C          3.37690        1.22117        2.21722
C          5.48833        1.23023        0.88967
H          2.48083        2.64804        0.07283
H          3.91075        3.45233        0.73629
H          3.98154        2.69324       -0.88251
H          3.68718        0.29477        2.74253
H          3.71316        2.09907        2.81000
H          2.27692        1.24276        2.18097
H          5.86107        0.24559        1.23651
H          5.96128        1.47358       -0.08772
H          5.84231        2.01360        1.60030
