81
speciation749.ct
Na         5.37795       -0.75300        2.48583
Mg         4.47444       -3.77358        1.04029
C          3.28911       -5.96102        2.24841
C          5.49294       -6.41085        1.55648
O          4.30368       -5.68921        1.29488
C          3.63643       -5.52924        3.67946
C          6.53757       -6.07192        0.50816
H          2.39090       -5.38710        1.93974
H          2.99200       -7.03235        2.21590
H          5.93556       -6.16354        2.54295
H          5.29102       -7.50243        1.47959
H          6.82035       -5.01235        0.61247
H          7.44747       -6.68876        0.66628
H          6.14463       -6.25301       -0.51410
H          3.95001       -4.46450        3.69554
H          2.74403       -5.65314        4.32786
H          4.43800       -6.16131        4.11349
H          1.49541        2.27076       -4.35487
C         -0.17868        1.16260       -5.16798
C          1.14418        1.21965       -4.35557
C         -1.39022        1.91009       -4.57381
H          0.00954        1.57457       -6.18767
H         -0.47295        0.09895       -5.29522
H         -2.25878        1.75139       -5.25350
H         -1.65413        1.48338       -3.58969
C         -1.20078        3.41870       -4.42873
H          1.88499        0.63072       -4.93943
H         -0.38120        3.64332       -3.72093
H         -0.98934        3.88931       -5.41244
H         -2.13748        3.86386       -4.02586
C          1.63910       -2.47903       -2.50015
C          1.94869       -3.70592       -1.95133
C          2.49962       -3.44364       -0.73091
C          2.54647       -2.06576       -0.58259
N          1.97269       -1.46662       -1.67597
C          3.21921       -1.38649        0.59931
N          4.64961       -1.80858        0.77913
C          5.52570       -1.54101       -0.44683
H          1.80322       -4.68559       -2.38921
H          1.17360       -2.34886       -3.47280
H          2.87430       -4.18747       -0.05868
H          2.66519       -1.67232        1.51523
H          3.15117       -0.29194        0.50427
C          5.46671       -0.05993       -0.87319
C          6.98835       -1.88234       -0.12504
C          5.20304       -2.40340       -1.71381
H          5.74316        0.60570       -0.03073
H          6.15494        0.13480       -1.72543
H          4.45388        0.19846       -1.24155
H          7.09590       -2.95650        0.09374
H          7.63233       -1.67799       -1.01511
H          7.37838       -1.28734        0.71986
H          5.17724       -3.49039       -1.48645
H          4.29476       -2.10158       -2.25230
H          5.96679       -2.24884       -2.50795
Mg         1.54974        0.51922       -2.26490
C         -1.32041       -1.36519       -1.97220
C         -1.48104       -1.81204       -0.68008
C         -0.90349       -0.87401        0.15778
C         -0.40070        0.10506       -0.59260
N         -0.63433       -0.14081       -1.96300
C          0.34655        1.28678       -0.04328
N          0.93212        2.09048       -1.12764
C          1.74214        3.26781       -0.65425
H         -1.96236       -2.73455       -0.38638
H         -1.65390       -1.87799       -2.86500
H         -0.84156       -0.93166        1.23583
H          1.15751        0.87705        0.58563
H         -0.35655        1.87461        0.57545
C          2.98360        2.80783        0.14009
C          2.23846        4.09534       -1.85895
C          0.89889        4.22192        0.22705
H          3.58668        2.10721       -0.46303
H          3.63426        3.67957        0.39792
H          2.71271        2.32875        1.10239
H          1.38642        4.51057       -2.43465
H          2.83614        4.96793       -1.50081
H          2.88639        3.50226       -2.53540
H          0.01863        4.58889       -0.33259
H          0.56068        3.74197        1.16494
H          1.50619        5.10480        0.53915
