95
speciation1659.ct
Na         1.64041       -0.01040       -1.06165
Mg         4.29940       -1.74086       -0.49068
C          3.37284       -4.18916        1.46494
C          3.83020       -4.76043       -0.78490
O          3.59469       -3.68351        0.13028
C          4.43992       -5.13237        1.99830
C          2.65317       -5.75406       -0.94506
H          3.36377       -3.35104        2.18152
H          2.36341       -4.66564        1.56246
H          4.02948       -4.35597       -1.77535
H          4.76466       -5.29623       -0.54655
H          1.71566       -5.24724       -1.25989
H          2.91489       -6.50837       -1.71958
H          2.45954       -6.32165       -0.01068
H          5.40105       -4.75491        1.71059
H          4.39659       -5.17316        3.10588
H          4.37413       -6.14690        1.56695
H          3.24584       -2.91461       -2.92514
C          3.09954       -1.05484       -3.77858
C          3.09560       -1.91472       -2.51161
C          4.48980       -1.06570       -4.39061
H          2.36258       -1.42402       -4.53093
H          2.82345       -0.01384       -3.50728
H          4.55482       -0.30320       -5.19690
H          5.12015       -0.81706       -3.54655
C          5.00714       -2.39568       -4.94669
H          2.04988       -1.94015       -2.13999
H          4.97667       -3.20863       -4.19485
H          4.43834       -2.69594       -5.84941
H          6.07543       -2.26366       -5.22696
C          6.60946        3.07759        1.19711
C          6.69127        1.94267        1.96285
C          5.63787        1.14356        1.57464
C          4.94550        1.81541        0.60371
N          5.55844        3.00157        0.36175
C          3.65791        1.35183       -0.02914
N          3.22404       -0.00563        0.38707
C          2.31038       -0.11171        1.58386
H          7.41274        1.73391        2.73763
H          7.24623        3.94620        1.29238
H          5.37891        0.19297        1.97321
H          3.77553        1.31668       -1.12370
H          2.88076        2.12011        0.13261
C          1.28075        1.03869        1.73215
C          1.48403       -1.37177        1.37778
C          3.08328       -0.22218        2.91730
H          0.66993        1.14699        0.81080
H          0.57968        0.81591        2.56964
H          1.75723        2.00896        1.97841
H          2.16160       -2.13626        1.07632
H          0.92735       -1.67455        2.29026
H          0.78329       -1.29257        0.52675
H          3.81407       -1.05615        2.90073
H          3.58746        0.73633        3.16626
H          2.38531       -0.41314        3.76222
Na         7.05787       -2.81009       -2.17528
Mg         4.99714        4.71232       -0.48584
H          4.20539        7.17926       -0.53093
C          3.27919        6.44331       -2.35737
C          4.42174        6.46604       -1.35472
C          1.97502        5.98911       -1.70774
H          3.15306        7.47303       -2.76065
H          3.54565        5.76313       -3.19531
H          2.09056        4.95424       -1.31812
H          1.72581        6.66765       -0.86303
C          0.83329        6.02775       -2.71943
H          5.33597        6.81174       -1.88207
H          0.70540        7.05930       -3.11403
H          1.04317        5.33967       -3.56598
H         -0.11145        5.71673       -2.22781
C          5.73168        2.36420       -3.30371
C          6.39521        1.57715       -4.21086
C          7.01093        0.54688       -3.48269
C          6.70763        0.67636       -2.19547
N          5.91059        1.83467       -2.03940
C          7.21804       -0.10616       -1.03349
N          6.68316       -1.44146       -0.56833
C          7.70404       -1.94938        0.48529
H          6.42968        1.75266       -5.27682
H          5.14340        3.24906       -3.52456
H          7.65292       -0.22678       -3.89512
H          7.16709        0.59194       -0.21160
H          8.29012       -0.13594       -1.26492
C          7.97529       -0.99910        1.69476
C          7.23338       -3.23973        1.11574
C          9.11160       -2.27193       -0.12319
H          7.08766       -0.87315        2.32415
H          8.71392       -1.44688        2.39655
H          8.42250       -0.02961        1.40257
H          7.02728       -4.01061        0.34505
H          8.00126       -3.65983        1.81408
H          6.35564       -2.98061        1.73590
H          9.04730       -3.05079       -0.90679
H          9.66926       -1.40590       -0.52135
H          9.79461       -2.65466        0.67047
