96
speciation1369.ct
Na         3.84193       -1.88118        1.65350
Mg         0.60447        0.02465       -2.30923
C          4.51530       -4.74271        0.36683
C          5.74440       -3.79035        2.13789
O          4.88961       -3.54225        1.05202
C          3.50169       -5.61621        1.10694
C          6.13731       -2.45537        2.77320
H          4.08446       -4.49170       -0.62127
H          5.41477       -5.32744        0.08246
H          5.23045       -4.39590        2.91358
H          6.67601       -4.27078        1.78007
H          5.26841       -1.95104        3.23050
H          6.86040       -2.62247        3.59295
H          6.57706       -1.77222        2.01365
H          2.59334       -5.04060        1.36411
H          3.20635       -6.46259        0.44653
H          3.94493       -6.04031        2.02726
H         -0.54599        0.27242       -2.45272
C         -2.00266       -1.31529       -2.39688
C         -1.36400       -0.05255       -1.77936
C         -3.47543       -1.51047       -2.00536
H         -1.96926       -1.23002       -3.50410
H         -1.41956       -2.21981       -2.12350
H         -4.06947       -0.65408       -2.39040
H         -3.84992       -2.43620       -2.49631
C         -3.70253       -1.63277       -0.50119
H         -2.05464        0.80410       -1.92875
H         -3.15497       -2.50682       -0.09171
H         -3.37279       -0.70922        0.01847
H         -4.78914       -1.77018       -0.31005
C          2.85573       -1.33388        4.67774
C          2.09831       -0.36339        5.29995
C          1.71433        0.53645        4.29463
C          2.25127        0.04352        3.12757
N          2.92751       -1.07299        3.35561
C          2.18158        0.63004        1.76358
N          2.66193       -0.39534        0.79297
C          1.59187       -1.40503        0.47711
H          1.86192       -0.31139        6.35571
H          3.33318       -2.18346        5.14926
H          1.10701        1.42118        4.45342
H          2.78251        1.55720        1.71767
H          1.14496        0.96882        1.60844
C          0.40890       -0.69158       -0.00195
C          2.12915       -2.26707       -0.61787
C          1.03590       -2.37601        1.54646
H          0.76595        0.20753       -0.54066
H         -0.14019       -1.47711       -0.54050
H         -0.29100       -0.31185        0.77096
H          3.00590       -2.78525       -0.27073
H          1.42071       -2.95811       -1.12444
H          2.40683       -1.55187       -1.31197
H          1.80536       -3.02496        1.98822
H          0.45033       -1.85400        2.32950
H          0.30083       -3.05808        1.04411
Mg         3.72840        0.23669       -1.13041
C          6.44002        1.44779       -0.69771
C          4.91984        3.18794       -1.20304
O          5.14321        1.76683       -1.19798
C          6.70310        1.93609        0.73207
C          5.87286        4.00412       -2.10385
H          6.55320        0.35089       -0.70715
H          7.23720        1.80429       -1.38845
H          3.95762        3.41928       -1.63942
H          4.87205        3.59951       -0.17658
H          5.80900        3.67205       -3.16232
H          5.57170        5.07523       -2.07212
H          6.92822        3.96120       -1.77025
H          5.91602        1.54662        1.40824
H          7.69753        1.58083        1.07207
H          6.73207        3.04469        0.78756
C          5.73458       -2.14571       -1.43938
C          5.79852       -3.17893       -2.36059
C          4.79515       -2.95440       -3.28031
C          4.16071       -1.79506       -2.88392
N          4.72203       -1.31746       -1.75137
C          2.96814       -1.14553       -3.54948
N          2.52469        0.09997       -2.82612
C          2.43412        1.26597       -3.74238
H          6.47659       -4.02143       -2.34063
H          6.36898       -2.04611       -0.56722
H          4.54530       -3.58309       -4.12942
H          2.12621       -1.86677       -3.57705
H          3.25834       -0.98243       -4.60529
C          1.44758        1.02359       -4.92087
C          1.84062        2.42078       -2.92914
C          3.82593        1.62257       -4.32788
H          0.42930        0.79103       -4.54556
H          1.37907        1.93063       -5.56005
H          1.74685        0.18990       -5.58544
H          2.27024        2.44353       -1.92413
H          1.94407        3.38913       -3.46681
H          0.76473        2.25312       -2.72527
H          4.59879        1.66753       -3.54711
H          4.17197        0.87484       -5.07266
H          3.79362        2.58911       -4.87247
