110
speciation2008.ct
Na         1.11005       -0.06196        0.03740
Mg        -2.09452       -1.31213       -0.91865
C         -1.00056        1.35093        1.97168
C          1.03699        1.05356        3.02579
O          0.30386        0.80538        1.83767
C         -1.87314        0.98080        0.79450
C          2.32091        0.24318        3.06731
H         -1.50970        0.91750        2.86419
H         -0.96887        2.46234        2.04604
H          1.28221        2.13679        3.11393
H          0.45790        0.72123        3.91952
H          3.01542        0.54408        2.27245
H          2.83138        0.42068        4.03759
H          2.09719       -0.83627        2.95774
H         -1.86986       -0.11779        0.69000
H         -2.91348        1.32517        0.98257
H         -1.51368        1.46218       -0.13291
H         -4.63774       -1.97325       -0.82039
C         -4.57765        0.02016       -1.72065
C         -4.10017       -1.00866       -0.70218
C         -4.32811       -0.45206       -3.15511
H         -5.66447        0.20008       -1.56896
H         -4.02916        0.97060       -1.54300
H         -3.24246       -0.63866       -3.30772
H         -4.88425       -1.39737       -3.33668
C         -4.79635        0.59773       -4.16157
H         -4.29718       -0.62119        0.31885
H         -5.88114        0.80199       -4.03201
H         -4.23054        1.54422       -4.02425
H         -4.62621        0.22926       -5.19505
C         -0.26991        1.46090       -4.56083
C         -0.04811        2.05618       -3.33718
C          0.12136        1.04605       -2.43693
C          0.00111       -0.14701       -3.13420
N         -0.22925        0.10736       -4.46224
C          0.14943       -1.53325       -2.58013
N         -0.13803       -1.60817       -1.12982
C          0.05181       -2.95499       -0.52399
H         -0.01116        3.12036       -3.10929
H         -0.44882        1.99650       -5.48231
H          0.32710        1.19189       -1.39844
H          1.18163       -1.85804       -2.81829
H         -0.56344       -2.16581       -3.14519
C          1.52775       -3.39860       -0.57833
C         -0.37288       -2.87090        0.95336
C         -0.83394       -4.02943       -1.20354
H          2.17722       -2.64747       -0.08191
H          1.65442       -4.37063       -0.05229
H          1.87630       -3.55176       -1.61882
H         -1.43096       -2.54120        1.03674
H         -0.28619       -3.86450        1.44703
H          0.26242       -2.14845        1.50716
H         -1.91355       -3.79532       -1.08013
H         -0.61042       -4.13545       -2.28140
H         -0.64569       -5.02846       -0.75273
Na        -0.57660       -1.33404       -6.18103
Mg         0.55696       -3.89529       -8.21383
C          3.55324        1.80470        0.02642
C          3.77971       -0.01749       -1.49654
O          3.18315        0.45792       -0.29663
C          3.42803        2.84515       -1.09626
C          5.29359       -0.24751       -1.35412
H          2.87550        2.15964        0.82611
H          4.57617        1.82973        0.46464
H          3.32570       -0.99679       -1.74583
H          3.55405        0.63662       -2.36144
H          5.49789       -1.03529       -0.59870
H          5.71423       -0.57393       -2.32937
H          5.82938        0.67906       -1.06018
H          2.39839        2.84012       -1.50600
H          3.64369        3.85401       -0.68305
H          4.16666        2.67371       -1.90656
H          3.01165       -4.67945       -7.90228
C          2.62832       -5.25288       -9.97387
C          2.18550       -5.08393       -8.52462
C          2.99678       -3.92045      -10.62426
H          3.50690       -5.93498       -9.99784
H          1.79701       -5.72200      -10.54319
H          2.11325       -3.25313      -10.61665
H          3.82377       -3.43621      -10.06043
C          3.43449       -4.13065      -12.07185
H          1.91830       -6.08879       -8.13555
H          4.33648       -4.77816      -12.11252
H          2.61807       -4.60867      -12.65500
H          3.67620       -3.15208      -12.53674
C         -1.94764       -5.46418       -4.37391
C         -0.90393       -6.02433       -5.07603
C         -0.84927       -5.39499       -6.30709
C         -1.81868       -4.48095       -6.35327
N         -2.55670       -4.46452       -5.14887
C         -2.15305       -3.61943       -7.53532
N         -1.03166       -2.73578       -7.91065
C         -1.32690       -1.83834       -9.06467
H         -0.26273       -6.82215       -4.72493
H         -2.26145       -5.74854       -3.37852
H         -0.16245       -5.62527       -7.10455
H         -3.04628       -3.02473       -7.26244
H         -2.40317       -4.30885       -8.36558
C         -2.46199       -0.84521       -8.72029
C         -0.05243       -1.03646       -9.36501
C         -1.71985       -2.61050      -10.34961
H         -2.23227       -0.28935       -7.78745
H         -2.60007       -0.11050       -9.54316
H         -3.43688       -1.36101       -8.59999
H          0.76539       -1.72128       -9.66132
H         -0.22048       -0.32026      -10.19963
H          0.27868       -0.46892       -8.47095
H         -0.91075       -3.29931      -10.67069
H         -2.65776       -3.18862      -10.22163
H         -1.91431       -1.89391      -11.17908
