95
speciation1389.ct
Na         7.65306        3.13274       -2.09684
Mg         2.22925        4.65237       -0.97004
C         10.42672        4.46547       -1.93283
C          8.96925        6.27168       -2.28511
O          9.15525        4.87215       -2.41353
C         10.60271        4.60224       -0.41330
C          7.58644        6.68111       -2.75758
H         10.53481        3.38888       -2.18319
H         11.24514        4.98285       -2.48049
H          9.06908        6.62883       -1.23888
H          9.70514        6.79121       -2.93883
H          6.81780        6.31271       -2.04667
H          7.53705        7.79175       -2.79679
H          7.38474        6.27854       -3.77049
H          9.79069        4.06844        0.12279
H         11.57827        4.16169       -0.11746
H         10.62378        5.66297       -0.09180
H          2.43873        6.71597       -2.74358
C          2.31632        5.18957       -4.20935
C          2.78073        5.66909       -2.83748
C          0.79494        5.22210       -4.30603
H          2.75265        5.85036       -4.99361
H          2.68209        4.16275       -4.39533
H          0.37234        4.56392       -3.51832
H          0.42606        6.26067       -4.14878
C          0.33042        4.73105       -5.67314
H          3.89342        5.67697       -2.83941
H          0.69838        5.40835       -6.47391
H          0.71227        3.70479       -5.86154
H         -0.77846        4.71019       -5.70213
C          6.54446        0.08972       -1.84212
C          5.47195       -0.75834       -2.06597
C          4.34980        0.04908       -2.14802
C          4.78910        1.35305       -1.94394
N          6.11850        1.35585       -1.77332
C          3.98826        2.61457       -1.99330
N          2.87814        2.69677       -1.00588
C          3.19907        2.35558        0.41281
H          5.53866       -1.83027       -2.20123
H          7.58669       -0.20457       -1.81708
H          3.34985       -0.28885       -2.36726
H          4.66719        3.48161       -1.84017
H          3.55861        2.71450       -3.00569
C          4.32450        3.26434        0.94661
C          1.95226        2.61435        1.22743
C          3.51902        0.85981        0.64152
H          4.03520        4.33153        0.82705
H          4.50669        3.06595        2.02346
H          5.27473        3.10225        0.39966
H          1.09834        2.02762        0.82022
H          2.08724        2.33458        2.29284
H          1.75246        3.68940        1.20064
H          2.74562        0.22274        0.15573
H          4.52804        0.56470        0.32178
H          3.52836        0.62002        1.72375
Na         1.27346        1.47185       -1.70192
Mg         3.30028        8.71013       -2.86503
H          4.14766        9.18527       -5.31328
C          2.44404       10.49618       -5.08236
C          3.12743        9.15187       -4.87432
C          1.02361       10.50799       -4.50820
H          3.05121       11.29645       -4.60564
H          2.39159       10.70622       -6.17431
H          0.57374       11.50314       -4.71023
H          0.40902        9.73454       -5.01805
C          0.99787       10.25692       -3.00071
H          2.55027        8.34209       -5.36678
H          1.36956        9.24090       -2.76762
H          1.61747       11.01173       -2.47079
H         -0.04550       10.32013       -2.63057
C          4.91361        8.12105       -0.73211
C          5.12817        7.62725        0.53216
C          3.89892        7.21891        1.00660
C          2.98267        7.47903        0.00401
N          3.61295        8.03977       -1.05878
C          1.50068        7.25198        0.09103
N          1.10311        5.83722        0.32120
C         -0.37286        5.65213        0.59704
H          6.08167        7.58754        1.03620
H          5.65954        8.53680       -1.39685
H          3.70372        6.79137        1.98053
H          1.03873        7.62155       -0.84719
H          1.16120        7.88894        0.93389
C         -1.20894        6.08373       -0.61958
C         -0.73874        4.17651        0.87981
C         -0.82301        6.42400        1.87016
H         -0.87789        5.51401       -1.51417
H         -2.28698        5.87797       -0.44799
H         -1.11276        7.16815       -0.81915
H         -0.29282        3.81431        1.83240
H         -1.83624        4.06899        1.04264
H         -0.46887        3.51724        0.03189
H         -0.23436        6.08710        2.75365
H         -0.73120        7.52181        1.78335
H         -1.89551        6.22925        2.09145
