80
speciation850.ct
Na        -3.08656        0.49472        5.46537
Mg        -1.81787       -3.73375        1.04584
H         -0.75573       -4.70947       -1.23495
C         -0.36289       -2.60873       -1.54995
C         -1.25658       -3.74056       -1.02524
C          1.01224       -2.60439       -0.87147
H         -0.22130       -2.74571       -2.64662
H         -0.86778       -1.63386       -1.38044
H          0.88335       -2.45431        0.21950
H          1.52274       -3.57834       -1.04308
C          1.90145       -1.48791       -1.42292
H         -2.21295       -3.71506       -1.58993
H          2.09597       -1.64044       -2.50672
H          1.41861       -0.49827       -1.27745
H          2.87570       -1.48676       -0.88910
C         -0.36072        1.60421        4.28680
C          0.58729        1.51876        3.28198
C          0.16895        0.52096        2.43149
C         -1.00633        0.02542        2.95969
N         -1.34480        0.69341        4.09698
C         -1.79238       -1.11578        2.37098
N         -0.96685       -2.33812        2.23014
C         -0.45890       -3.00187        3.46100
H          1.48718        2.11165        3.18071
H         -0.31888        2.29352        5.11713
H          0.67517        0.17828        1.53797
H         -2.71090       -1.31375        2.95587
H         -2.11192       -0.80044        1.35587
C         -1.59894       -3.28728        4.45620
C          0.18136       -4.32954        3.02425
C          0.65465       -2.19078        4.16217
H         -2.39806       -3.88293        3.97656
H         -1.22083       -3.85211        5.33749
H         -2.04546       -2.34611        4.83846
H          1.01655       -4.14619        2.31587
H          0.57692       -4.88593        3.90270
H         -0.55334       -4.97372        2.51666
H          1.46475       -1.93863        3.44362
H          0.28172       -1.26829        4.63635
H          1.09846       -2.78098        4.99227
Na        -5.82873        4.90279        4.80605
Mg        -4.23490        1.99389        4.36352
H         -2.32181       -6.25970        2.03657
C         -4.00898       -6.18002        0.71676
C         -3.02648       -5.48568        1.66187
C         -3.30017       -6.77243       -0.50196
H         -4.52295       -7.00138        1.26938
H         -4.77321       -5.44374        0.39210
H         -2.78909       -5.96096       -1.04720
H         -2.54453       -7.52420       -0.18203
C         -4.29205       -7.43581       -1.45376
H         -3.61385       -5.13478        2.53546
H         -4.78282       -8.30471       -0.96586
H         -5.06885       -6.70634       -1.76812
H         -3.75493       -7.79055       -2.35872
C         -5.23965       -0.76041        7.48011
C         -6.38313       -0.51363        8.22038
C         -6.71740        0.79923        7.99526
C         -5.77072        1.29305        7.12549
N         -4.86130        0.34363        6.79972
C         -5.76994        2.69923        6.60699
N         -5.83328        2.78878        5.13917
C         -7.03500        2.28113        4.42909
H         -6.92023       -1.20816        8.85457
H         -4.72315       -1.70842        7.44406
H         -7.56220        1.33494        8.41487
H         -6.59924        3.28120        7.06067
H         -4.82723        3.18208        6.94066
C         -8.33231        2.90127        4.99242
C         -6.89629        2.70623        2.95767
C         -7.11714        0.73842        4.44688
H         -8.28022        4.01084        4.94764
H         -9.21369        2.57049        4.40186
H         -8.50704        2.59764        6.04506
H         -5.97146        2.27532        2.51643
H         -7.76567        2.35082        2.36192
H         -6.84468        3.81150        2.86730
H         -6.16239        0.29912        4.08369
H         -7.93730        0.38305        3.78731
H         -7.34638        0.32964        5.44465
