83
speciation458.ct
Na         6.11991       -3.37890       -2.75758
Mg         4.64092        2.38136       -0.39681
C          6.08040       -5.83870       -4.40994
C          4.09744       -5.53023       -3.18974
O          5.48150       -5.29192       -3.25443
C          5.66943       -5.15627       -5.71649
C          3.55044       -5.01413       -1.86973
H          7.18270       -5.72913       -4.29587
H          5.90655       -6.94403       -4.46770
H          3.55243       -5.00002       -4.01584
H          3.89617       -6.62463       -3.22911
H          3.70079       -3.91686       -1.79983
H          2.46487       -5.23695       -1.80287
H          4.07346       -5.50957       -1.02148
H          5.84237       -4.06463       -5.63846
H          6.27529       -5.56545       -6.54935
H          4.60446       -5.35594       -5.94623
C          3.32183        1.32344       -3.11193
C          3.31845        0.20773       -3.93668
C          4.20110       -0.68627       -3.38631
C          4.71457       -0.07374       -2.26285
N          4.18099        1.15508       -2.06621
C          5.70532       -0.67412       -1.33710
N          6.75260       -1.40741       -2.08415
C          7.95832       -1.72254       -1.29488
H          2.73434        0.04594       -4.83801
H          2.70921        2.19952       -3.27534
H          4.44802       -1.67257       -3.77062
H          5.18094       -1.36583       -0.65479
H          6.12193        0.16900       -0.75391
C          7.59837       -2.43944        0.01786
C          8.82543       -2.69839       -2.10841
C          8.76857       -0.42179       -1.04042
H          6.83233       -3.23051       -0.17216
H          8.47744       -2.91525        0.49743
H          7.15776       -1.74182        0.73865
H          9.06019       -2.29480       -3.10912
H          9.77376       -2.90485       -1.56658
H          8.30066       -3.67356       -2.22587
H          8.96597        0.09069       -2.00481
H          8.22256        0.29029       -0.38947
H          9.73468       -0.63344       -0.53849
Na         5.83118        8.20382        1.53385
C          5.73518        1.49242        2.52025
C          3.58303        0.79285        1.96804
O          4.75734        1.41725        1.46761
C          6.26823        0.13332        3.03109
C          2.38085        1.14194        1.12228
H          6.62031        2.03817        2.15314
H          5.32641        2.03019        3.40536
H          3.72162       -0.30814        1.93501
H          3.32648        1.10743        3.01267
H          2.60588        0.94062        0.05907
H          1.52552        0.50621        1.43914
H          2.10907        2.20885        1.26366
H          6.82590       -0.36952        2.23740
H          6.98419        0.28740        3.87011
H          5.47356       -0.54186        3.41692
C          4.27560        5.05836       -2.01241
C          4.61204        6.40321       -2.05935
C          5.38153        6.64886       -0.95170
C          5.48649        5.44186       -0.28094
N          4.80651        4.44138       -0.92231
C          6.26992        5.25189        0.96352
N          5.76362        6.11745        2.03859
C          6.46156        5.98769        3.34334
H          4.33906        7.14102       -2.80956
H          3.68157        4.56789       -2.77087
H          5.82585        7.59624       -0.68279
H          6.18698        4.18664        1.23415
H          7.32357        5.50642        0.71709
C          7.95457        6.36455        3.22535
C          5.78834        6.93914        4.34365
C          6.33081        4.55986        3.88717
H          8.06286        7.40258        2.84091
H          8.44845        6.29502        4.21509
H          8.50052        5.67260        2.55276
H          4.71180        6.69071        4.45596
H          6.27200        6.85486        5.34234
H          5.87425        7.99295        4.00548
H          5.25991        4.26557        3.92300
H          6.90217        3.86735        3.25387
H          6.76506        4.47331        4.90561
