68
speciation93.ct
Na         1.47922        1.14936       -0.72614
Li         0.87214       -0.20207       -1.06841
C          1.33578        3.91758       -2.19609
C          1.70583        4.07986        0.15995
O          1.25380        3.28724       -0.92095
C          2.76779        4.14010       -2.65858
C          1.05027        5.46893        0.24190
H          0.83101        3.28272       -2.93073
H          0.72663        4.84458       -2.25846
H          1.39932        3.55233        1.08491
H          2.81058        4.15104        0.16037
H         -0.05782        5.38783        0.19547
H          1.33320        5.95255        1.19901
H          1.40501        6.12875       -0.57779
H          3.33181        3.19112       -2.58653
H          2.76871        4.48469       -3.71471
H          3.25565        4.91463       -2.03436
C          4.19278        1.24593       -6.80182
C          3.04866        1.20118       -7.61569
C          1.90895        1.06064       -6.80454
C          2.32466        1.12121       -5.50614
N          3.86990        1.16813       -5.51754
C          0.92888        0.98330       -3.98462
N          0.10519        1.02178       -2.38367
C         -1.14542        1.03460       -1.09375
H          3.00799        1.14270       -8.68045
H          5.21188        1.28240       -7.22192
H          0.86819        1.01656       -7.16566
H          0.55595        0.00988       -4.28024
H          0.21443        1.69897       -4.47699
C         -2.22427       -0.18780       -0.99205
C         -0.53668        0.90139        0.40194
C         -2.16853        2.26099       -0.63245
H         -1.81054       -1.20894       -0.87018
H         -2.83388       -0.15788       -0.00395
H         -3.11312       -0.12318       -1.64212
H          0.10348        1.72758        0.74617
H         -1.21930        1.17203        1.27325
H         -1.00183        0.10467        1.03430
H         -1.70976        3.15070       -0.11806
H         -3.09100        2.47052       -1.19071
H         -2.81872        1.96230        0.28556
Na         4.00492        1.03864       -3.15493
C          5.03773        1.75791       -0.26878
C          5.70919        1.13552        0.75335
C          5.22478       -0.15848        0.79440
C          4.20232       -0.22658       -0.13639
N          4.13993        0.90916       -0.79233
C          3.21343       -1.27851       -0.40466
N          2.00060       -0.90396        0.34199
C          2.02694       -1.04583        1.86763
H          6.50889        1.55511        1.34762
H          5.27862        2.72869       -0.68185
H          5.56576       -0.94201        1.45694
H          3.55240       -2.31644       -0.26345
H          2.93944       -1.19985       -1.48435
C          2.98855       -0.06890        2.58137
C          0.68921       -0.75863        2.55887
C          2.35252       -2.50767        2.24252
H          2.96767        0.93389        2.09530
H          2.74959        0.08001        3.65370
H          3.97222       -0.51085        2.70989
H         -0.11869       -1.37894        2.13030
H          0.73859       -1.03173        3.63758
H          0.49088        0.33266        2.59849
H          1.52046       -3.17684        1.92820
H          3.28584       -2.86554        1.77453
H          2.49059       -2.60508        3.33959
