110
speciation1909.ct
Na         1.03820       -0.14849        0.18743
Mg        -6.06061       -1.83323        1.92770
C         -1.00052        2.16190        0.21450
C          0.97567        2.87663        1.26664
O          0.25381        1.77086        0.74857
C         -0.88258        3.03443       -1.04374
C          2.29173        2.41592        1.84876
H         -1.54399        1.23875       -0.05705
H         -1.63208        2.66262        0.98534
H          1.23056        3.61085        0.47227
H          0.40278        3.36510        2.08641
H          2.89892        2.01147        1.02720
H          2.83910        3.27970        2.28227
H          2.12567        1.64832        2.63160
H         -0.21348        2.54866       -1.78378
H         -1.88567        3.17735       -1.49702
H         -0.49228        4.04556       -0.80204
H         -4.08150       -3.40783        2.61127
C         -5.46955       -4.20601        4.05433
C         -4.89781       -3.03193        3.25712
C         -6.00709       -5.30641        3.13837
H         -4.65721       -4.63106        4.68751
H         -6.27818       -3.84310        4.72119
H         -6.81576       -4.89234        2.50099
H         -5.18904       -5.68584        2.48614
C         -6.56301       -6.47217        3.95555
H         -4.44943       -2.30828        3.97015
H         -5.76418       -6.92772        4.58022
H         -7.38387       -6.12189        4.61707
H         -6.96452       -7.25009        3.27275
C         -0.14984       -2.58428       -3.85371
C         -0.58010       -1.33154       -3.45803
C         -0.56990       -1.32214       -2.07976
C         -0.12342       -2.56927       -1.69548
N          0.13089       -3.33562       -2.76487
C          0.09040       -3.06879       -0.29153
N         -0.20531       -2.02946        0.71060
C          0.08174       -2.43012        2.11580
H         -0.87423       -0.51824       -4.10862
H         -0.03770       -2.92392       -4.86798
H         -0.84436       -0.49658       -1.44506
H          1.15431       -3.36802       -0.23789
H         -0.55919       -3.95123       -0.15015
C          1.57815       -2.74562        2.32786
C         -0.29688       -1.24711        3.02393
C         -0.76471       -3.64853        2.54350
H          2.20889       -1.88364        2.02351
H          1.77769       -2.96589        3.40056
H          1.90005       -3.64489        1.76585
H         -1.37437       -1.00150        2.91875
H         -0.09801       -1.49342        4.08985
H          0.29753       -0.34607        2.75890
H         -1.84172       -3.42996        2.41950
H         -0.51860       -4.55826        1.95797
H         -0.57928       -3.89850        3.61130
Na        -2.53540       -1.62038        0.56845
Mg         0.78010       -5.17407       -2.79097
C          3.10577       -0.37343       -2.01713
C          4.25028       -0.05019        0.05372
O          3.02060        0.05989       -0.66405
C          3.67481       -1.78656       -2.21378
C          5.31646        0.94980       -0.43490
H          2.07369       -0.37727       -2.41702
H          3.65429        0.36661       -2.63950
H          4.06308        0.15979        1.12470
H          4.64559       -1.08326        0.05171
H          4.97332        1.99706       -0.29807
H          6.25537        0.81038        0.14278
H          5.56795        0.79587       -1.50497
H          3.12189       -2.51125       -1.58215
H          3.58005       -2.08251       -3.27853
H          4.75804       -1.82691       -1.97153
H         -8.52033       -0.73154        1.64976
C         -8.81313       -1.65548        3.56950
C         -8.21557       -1.66732        2.16108
C         -8.28309       -0.49415        4.41639
H         -9.91974       -1.55146        3.48837
H         -8.59564       -2.62103        4.07235
H         -8.53851        0.47586        3.93675
H         -8.77199       -0.52820        5.41481
C         -6.77497       -0.58369        4.60928
H         -8.66837       -2.51088        1.59781
H         -6.52047       -1.54144        5.10590
H         -6.25850       -0.51689        3.62970
H         -6.42077        0.25044        5.24611
C         -7.87881        2.01454       -0.05772
C         -7.21277        2.43967       -1.18599
C         -5.97190        1.83249       -1.18050
C         -5.88037        1.06674       -0.09475
N         -7.06105        1.13120        0.67378
C         -4.66758        0.24807        0.27781
N         -4.86550       -1.21129        0.42630
C         -5.30437       -1.98089       -0.77966
H         -7.60142        3.12561       -1.93039
H         -8.87994        2.30749        0.22870
H         -5.19905        1.96778       -1.93166
H         -4.29395        0.63916        1.24499
H         -3.86240        0.43436       -0.46280
C         -4.31047       -1.82184       -1.94882
C         -5.35809       -3.46632       -0.38265
C         -6.72417       -1.60290       -1.27390
H         -3.29415       -2.14253       -1.64288
H         -4.62366       -2.44831       -2.81253
H         -4.26817       -0.77310       -2.30719
H         -6.08975       -3.61843        0.43976
H         -5.68183       -4.09344       -1.24352
H         -4.36373       -3.82451       -0.04367
H         -7.47106       -1.69064       -0.46228
H         -6.77668       -0.59400       -1.71159
H         -7.03829       -2.27853       -2.09910
