80
speciation856.ct
Na         6.26939        1.37386       -2.61756
Mg         2.08433        4.69070       -1.30026
H          3.57880        6.93749       -1.47404
C          4.93267        5.63404       -2.52901
C          3.87754        5.87173       -1.44531
C          4.38936        5.90216       -3.92970
H          5.79416        6.31880       -2.33720
H          5.30666        4.58933       -2.45984
H          3.54920        5.20345       -4.13284
H          4.01539        6.94736       -3.99286
C          5.47229        5.70653       -4.99099
H          4.37047        5.67496       -0.46910
H          6.30794        6.42234       -4.83189
H          5.87232        4.67087       -4.95480
H          5.04293        5.88659       -5.99903
C          5.90744       -0.57116       -0.28207
C          5.27350       -0.84061        0.90569
C          4.43910        0.22519        1.15905
C          4.58268        1.10269        0.08960
N          5.49592        0.61210       -0.79154
C          3.83534        2.42008       -0.02531
N          2.92579        2.60543       -1.19118
C          1.84555        1.58618       -1.34311
H          5.41762       -1.70897        1.52226
H          6.63485       -1.20765       -0.76390
H          3.79418        0.34047        2.01258
H          3.25078        2.48373        0.89790
H          4.58977        3.23105       -0.02979
C          0.88688        1.61074       -0.13605
C          1.08364        1.98303       -2.58119
C          2.33527        0.14228       -1.61674
H          0.52856        2.64655        0.04411
H          0.00654        0.95967       -0.32381
H          1.38752        1.24322        0.78222
H          1.74903        2.03933       -3.47492
H          0.22008        1.32335       -2.79859
H          0.70948        2.95069       -2.32828
H          3.06694        0.11828       -2.45294
H          2.75952       -0.35570       -0.73160
H          1.47412       -0.50174       -1.90355
Na         4.14590        2.38651       -2.93104
Mg        -0.22364        2.74841        2.25256
H          1.09067        4.70875       -4.10623
C         -0.20113        6.40449       -3.75593
C          0.51065        5.11332       -3.25148
C         -1.16431        6.21691       -4.93806
H         -0.87851        6.79128       -2.98693
H          0.55831        7.17534       -4.00020
H         -0.61153        5.89755       -5.84237
H         -1.93255        5.44641       -4.69160
C         -1.90555        7.53815       -5.20779
H         -0.36758        4.45708       -3.06700
H         -2.50609        7.83711       -4.31853
H         -1.17957        8.34992       -5.42540
H         -2.59990        7.43351       -6.06651
C          0.05642        4.46201        4.62289
C          0.74116        5.55220        5.12199
C          1.60867        5.96084        4.13082
C          1.40679        5.10337        3.06092
N          0.46482        4.18967        3.36879
C          2.11850        5.17583        1.73812
N          1.20576        5.35340        0.58339
C          0.49473        6.67708        0.59583
H          0.61682        6.00064        6.09883
H         -0.70510        3.90185        5.14822
H          2.29334        6.79515        4.17771
H          2.63983        4.23778        1.63743
H          2.90794        5.95244        1.73866
C          1.42467        7.90613        0.79044
C         -0.13067        6.83411       -0.74461
C         -0.67857        6.71783        1.60642
H          2.19234        7.95688       -0.01075
H          0.83343        8.84754        0.73017
H          1.93386        7.91503        1.77170
H         -0.80867        5.97246       -0.94104
H         -0.71212        7.78003       -0.83327
H          0.70685        6.87716       -1.46487
H         -1.33774        5.83318        1.46810
H         -0.36183        6.77607        2.65581
H         -1.29487        7.63124        1.45286
