110
speciation1903.ct
Na        -2.23857        2.03187        1.00880
Mg        -0.73170       -5.30420       -3.79935
C         -4.30517       -0.27354        1.99511
C         -2.68527       -1.32688        0.79061
O         -3.14329       -0.04545        1.20729
C         -4.92442        1.03356        2.36633
C         -1.45146       -1.25676       -0.06865
H         -5.08202       -0.83884        1.42950
H         -4.04033       -0.80333        2.93758
H         -2.44107       -1.97303        1.66762
H         -3.46636       -1.83761        0.16351
H         -0.61126       -0.82106        0.50769
H         -1.18878       -2.29705       -0.36428
H         -1.65482       -0.66177       -0.98092
H         -5.24559        1.55764        1.44640
H         -5.81187        0.85934        3.01002
H         -4.15757        1.60453        2.91764
H         -2.74574       -6.05327       -2.11185
C         -2.62601       -8.09225       -2.79692
C         -2.49566       -6.57277       -3.06504
C         -1.65178       -8.60519       -1.73033
H         -3.66014       -8.29640       -2.42185
H         -2.49631       -8.67472       -3.73544
H         -1.79997       -8.03358       -0.78731
H         -1.85165       -9.68344       -1.51809
C         -0.20899       -8.46884       -2.18942
H         -3.30703       -6.32271       -3.78201
H         -0.04685       -9.10462       -3.08479
H          0.01528       -7.41058       -2.43647
H          0.47639       -8.79900       -1.38275
C          3.73240        2.91956       -1.02459
C          3.66595        4.29600       -1.08527
C          2.35483        4.63667       -0.83485
C          1.68660        3.44839       -0.59251
N          2.52371        2.40136       -0.73293
C          0.24731        3.32570       -0.19043
N          0.09177        2.66084        1.12117
C          0.71458        3.36423        2.31275
H          4.48344        4.97453       -1.28873
H          4.62000        2.32405       -1.19077
H          1.94498        5.63696       -0.79078
H         -0.26108        2.70468       -0.95686
H         -0.25722        4.31393       -0.18306
C          0.02907        4.70969        2.58838
C          0.56653        2.43818        3.52598
C          2.24981        3.64954        2.22508
H         -1.04184        4.55638        2.75452
H          0.45919        5.19521        3.49204
H          0.17944        5.41410        1.74115
H          1.13276        1.49556        3.35020
H          0.99117        2.91702        4.43982
H         -0.49612        2.19705        3.71191
H          2.84052        2.74766        1.95769
H          2.50422        4.49011        1.56323
H          2.64159        4.02096        3.19817
Na         2.13503        0.06390       -0.68688
Mg         1.17249        1.04488        0.97248
C         -3.99679        4.62353        1.72638
C         -4.79474        3.76952       -0.30047
O         -3.80860        3.62196        0.72808
C         -5.22564        4.39487        2.61918
C         -4.36118        3.16114       -1.62242
H         -3.11227        4.64956        2.37261
H         -4.05064        5.64135        1.27443
H         -5.75220        3.29831        0.00709
H         -4.98897        4.84556       -0.54023
H         -4.18612        2.07332       -1.50930
H         -5.17185        3.31598       -2.37259
H         -3.44584        3.66392       -1.99724
H         -5.14196        3.46356        3.19360
H         -5.30096        5.21034        3.36761
H         -6.16461        4.37514        2.03034
H          0.52780       -7.49603       -4.81394
C          1.38881       -6.04382       -6.16118
C          0.21266       -6.56714       -5.33064
C          2.55629       -5.56325       -5.29845
H          1.74650       -6.86077       -6.84140
H          1.04410       -5.20900       -6.80479
H          2.20074       -4.73298       -4.65080
H          2.92469       -6.39271       -4.65677
C          3.71603       -5.05581       -6.16074
H         -0.58656       -6.85079       -6.04967
H          4.13059       -5.87747       -6.78431
H          3.37827       -4.23410       -6.82850
H          4.52684       -4.66708       -5.50929
C          2.25418       -3.22495        0.16411
C          1.94241       -4.49052       -0.31677
C          1.20467       -4.31455       -1.45298
C          1.07970       -2.95846       -1.64924
N          1.74635       -2.27356       -0.64082
C          0.42212       -2.37059       -2.90683
N         -0.66155       -3.22307       -3.52012
C         -1.37283       -2.62000       -4.69122
H          2.25733       -5.44325        0.08266
H          2.87764       -3.02544        1.01861
H          0.82294       -5.09048       -2.12016
H          0.00778       -1.37901       -2.63513
H          1.23149       -2.19875       -3.64339
C         -0.41037       -2.27602       -5.85634
C         -2.39448       -3.64022       -5.22881
C         -2.14720       -1.33822       -4.30010
H          0.14817       -3.17471       -6.18305
H         -0.97858       -1.89018       -6.73283
H          0.31282       -1.48564       -5.57387
H         -3.12593       -3.92414       -4.44339
H         -2.96261       -3.22385       -6.08824
H         -1.88353       -4.55711       -5.59307
H         -2.82831       -1.53535       -3.44651
H         -1.46217       -0.50714       -4.03695
H         -2.76156       -0.97525       -5.15582
