53
speciation833.ct
Na         4.99908       -4.32572       -2.12084
C          2.21743       -0.87969       -4.38894
C          2.28196       -2.25649       -4.53260
C          2.86530       -2.73343       -3.39363
C          3.12856       -1.62799       -2.60410
N          2.71198       -0.46669       -3.16759
C          3.70729       -1.72837       -1.26545
N          5.04022       -2.37730       -1.21767
C          5.54737       -2.58375        0.16502
H          1.93352       -2.87704       -5.35825
H          1.78722       -0.22678       -5.13702
H          3.05430       -3.77815       -3.15207
H          2.92120       -2.32646       -0.75075
H          3.72379       -0.71630       -0.83033
C          4.61447       -3.58921        0.89758
C          7.00789       -3.12153        0.08720
C          5.60751       -1.25898        0.95333
H          4.66114       -4.61365        0.45618
H          4.47058       -3.43333        1.98697
H          3.58619       -3.32846        0.77401
H          7.67293       -2.40000       -0.44695
H          7.44042       -3.26599        1.10183
H          7.07592       -4.08940       -0.45496
H          6.25238       -0.52064        0.42800
H          4.60108       -0.83097        1.10163
H          6.02078       -1.43484        1.97057
Na         6.47449       -1.21615       -2.28415
Mg         2.93580        1.52617       -2.32791
C          0.74325        4.23697        2.36747
C          0.92875        2.88475        2.16214
C          1.37083        2.70565        0.85204
C          1.44267        3.90656        0.28137
N          1.05578        4.92647        1.18810
C          1.85915        4.15205       -1.14908
N          3.18205        3.54565       -1.49008
C          4.38709        4.22330       -0.88603
H          0.75390        2.11265        2.89936
H          0.40549        4.69502        3.28785
H          1.58619        1.76268        0.38442
H          1.83422        5.24591       -1.37029
H          1.08903        3.70297       -1.80134
C          4.52574        3.97429        0.64004
C          5.65905        3.67822       -1.56414
C          4.39568        5.77605       -1.08171
H          4.69396        2.90507        0.87052
H          5.39251        4.54509        1.04344
H          3.66914        4.35330        1.22940
H          5.69327        3.98845       -2.62687
H          6.56013        4.07471       -1.05099
H          5.66879        2.56917       -1.48955
H          4.36267        6.06030       -2.15429
H          3.57147        6.29282       -0.54058
H          5.33573        6.21040       -0.66571
