96
speciation1316.ct
Na         1.24212        0.81377       -0.18635
Mg         6.92987        1.38393       -1.77863
C         -1.95059        0.60464       -0.22051
C         -1.16427        2.52436       -1.41210
O         -0.93659        1.58987       -0.36885
C         -2.26100       -0.21417       -1.47941
C         -2.39150        3.41017       -1.15957
H         -1.60827       -0.10252        0.56347
H         -2.87514        1.06268        0.19063
H         -0.28688        3.20418       -1.43932
H         -1.21315        2.03996       -2.40747
H         -2.29669        3.93281       -0.18408
H         -2.47445        4.16976       -1.96514
H         -3.32842        2.81590       -1.16576
H         -1.34587       -0.72276       -1.84556
H         -3.02509       -0.98129       -1.23158
H         -2.69127        0.41697       -2.28379
H          6.82357        3.97040       -2.04133
C          8.95584        3.50830       -1.95875
C          7.51759        3.31502       -1.48126
C          9.40423        4.95946       -1.74312
H          9.61189        2.82475       -1.37377
H          9.02804        3.24312       -3.03279
H          8.75564        5.64040       -2.33770
H          9.31138        5.22636       -0.66807
C         10.85587        5.16197       -2.16841
H          7.45613        3.53762       -0.40022
H         11.52699        4.51554       -1.56319
H         10.98249        4.91744       -3.24417
H         11.14464        6.22240       -2.00674
C          7.09243        1.76550        2.12740
C          6.25060        2.17753        3.13431
C          4.95781        2.01893        2.67303
C          5.00333        1.53282        1.42586
N          6.34048        1.33151        1.01984
C          3.78282        1.35753        0.55374
N          3.46778        0.02095        0.00009
C          3.09887       -1.09461        0.96119
H          6.55132        2.57823        4.09423
H          8.17612        1.79315        2.17358
H          4.06068        2.29414        3.21007
H          3.90082        2.04896       -0.30530
H          2.90288        1.72613        1.11786
C          1.89976       -0.72448        1.88279
C          2.65999       -2.33453        0.15553
C          4.25225       -1.53845        1.88753
H          0.96066       -0.55408        1.32444
H          1.65620       -1.57173        2.56176
H          2.11907        0.15198        2.52383
H          3.47693       -2.69052       -0.50576
H          2.39028       -3.17382        0.83799
H          1.75832       -2.11630       -0.45031
H          5.11195       -1.94013        1.33156
H          4.57295       -0.73263        2.57120
H          3.90439       -2.36991        2.54366
Mg         4.30512       -0.43348       -1.86199
C          2.64610        0.35541       -3.90093
C          2.19963       -1.90899       -3.27635
O          3.17103       -0.86938       -3.38913
C          1.40006        0.87673       -3.20754
C          1.68869       -2.40195       -4.64146
H          3.40420        1.13490       -3.70190
H          2.51748        0.30557       -5.00201
H          2.66846       -2.78375       -2.78212
H          1.34559       -1.61307       -2.63686
H          2.51349       -2.86428       -5.22359
H          0.89331       -3.16504       -4.49131
H          1.24251       -1.58003       -5.23644
H          1.63503        0.90744       -2.14626
H          1.18152        1.90967       -3.54390
H          0.50631        0.25036       -3.39797
C         10.32712       -2.02679       -0.52403
C         10.24838       -0.69559       -0.18379
C          8.93577       -0.29845       -0.36155
C          8.23541       -1.34802       -0.80027
N          9.05935       -2.49090       -0.91148
C          6.76539       -1.35902       -1.12169
N          6.33917       -0.41985       -2.18164
C          6.82590       -0.70920       -3.57780
H         11.07232       -0.08248        0.15688
H         11.22442       -2.63265       -0.50164
H          8.54743        0.69362       -0.18506
H          6.24752       -1.05266       -0.20498
H          6.42858       -2.38684       -1.35436
C          6.41860       -2.12252       -4.03724
C          6.19909        0.32063       -4.53462
C          8.35497       -0.52076       -3.74570
H          5.32166       -2.26386       -3.94216
H          6.69796       -2.27905       -5.10000
H          6.93678       -2.90470       -3.44685
H          6.47745        1.35866       -4.24336
H          6.53388        0.15279       -5.58072
H          5.11512        0.23224       -4.54602
H          8.65185        0.52829       -3.52285
H          8.96023       -1.20108       -3.13347
H          8.65026       -0.74289       -4.79379
