53
speciation826.ct
Na         3.94379        4.53223        2.75531
C          6.32331        4.57327        0.76793
C          6.82154        4.04960       -0.40409
C          5.87672        3.16179       -0.87458
C          4.83801        3.18105        0.03879
N          5.11476        4.04590        1.03783
C          3.58852        2.34665       -0.02585
N          2.80668        2.65806       -1.23777
C          1.54990        1.89425       -1.41202
H          7.77531        4.28575       -0.86097
H          6.82072        5.30070        1.39946
H          5.94795        2.56292       -1.77159
H          3.89728        1.28305       -0.01405
H          2.99531        2.57336        0.88211
C          0.57847        2.11065       -0.22981
C          0.87652        2.40823       -2.69483
C          1.83668        0.38716       -1.58604
H          0.36549        3.19235       -0.09393
H         -0.38195        1.58298       -0.41498
H          0.98656        1.70500        0.71817
H          1.54322        2.25891       -3.57162
H         -0.07708        1.86872       -2.88498
H          0.65123        3.49296       -2.60912
H          2.54879        0.22290       -2.42344
H          2.26292       -0.05938       -0.66476
H          0.89807       -0.16464       -1.80988
Na         2.34324        4.74130       -1.12714
Mg         3.90663        2.32926       -2.86322
C          5.32738        0.80247       -5.00683
C          6.16484        0.95922       -6.09320
C          6.36677        2.31529       -6.24043
C          5.64239        2.92281       -5.23495
N          5.00658        2.00046       -4.48867
C          5.56908        4.39163       -4.97706
N          5.02210        5.06082       -6.16510
C          4.80427        6.51884       -6.04855
H          6.58885        0.17330       -6.70189
H          4.98355       -0.14376       -4.60524
H          6.98151        2.80114       -6.98656
H          4.91414        4.54258       -4.09635
H          6.59260        4.75517       -4.75414
C          6.13274        7.27147       -5.82145
C          4.20006        6.99523       -7.38099
C          3.80400        6.84922       -4.91996
H          6.85081        7.04599       -6.63948
H          5.95882        8.36936       -5.80179
H          6.59957        6.99534       -4.85434
H          3.24932        6.45903       -7.59032
H          3.98723        8.08647       -7.35266
H          4.90070        6.79888       -8.22130
H          2.85395        6.29359       -5.07437
H          4.21005        6.59391       -3.92055
H          3.57926        7.93705       -4.90513
