110
speciation2254.ct
Na         1.02674        0.07899        0.05519
Mg         5.42377       -5.27584       -1.99169
C         -1.84624        1.25360       -0.50950
C         -1.87347       -0.12976        1.33435
O         -1.29326        0.07899        0.05519
C         -1.25653        1.51176       -1.88726
C         -1.40489       -1.44148        1.96005
H         -2.94305        1.11829       -0.65673
H         -1.65779        2.14398        0.13278
H         -1.64032        0.71019        2.02775
H         -2.97816       -0.23356        1.22961
H         -0.33431       -1.43102        2.20044
H         -1.94752       -1.60648        2.91538
H         -1.59651       -2.29418        1.27900
H         -1.41475        0.63115       -2.54497
H         -1.76343        2.39032       -2.34303
H         -0.17100        1.72666       -1.80782
H          2.78131       -5.90133       -2.09971
C          3.19453       -7.31136       -0.52994
C          3.63401       -6.53662       -1.78546
C          2.81225       -6.37146        0.61770
H          2.29792       -7.92253       -0.79045
H          4.00097       -8.00528       -0.21040
H          3.69516       -5.76342        0.90401
H          1.99551       -5.69416        0.28397
C          2.31507       -7.14415        1.84188
H          3.79143       -7.28209       -2.59312
H          1.41098       -7.74215        1.59257
H          3.10466       -7.82524        2.22380
H          2.04519       -6.42603        2.64551
C          6.56193       -3.46990       -0.27702
C          6.31919       -3.69468        1.03822
C          5.59608       -2.64656        1.46642
C          5.45715       -1.75847        0.37631
N          6.02617       -2.29388       -0.68939
C          4.88772       -0.33331        0.07164
N          3.39674        0.07899        0.05519
C          3.35093        0.44689        1.62550
H          6.60149       -4.54811        1.63616
H          7.03957       -4.19919       -0.85739
H          5.28881       -2.66012        2.49659
H          5.56021        0.26464        0.67888
H          5.36127        0.00581       -0.81294
C          4.15297        1.76041        2.03294
C          1.94877        0.64741        2.25158
C          3.89623       -0.65908        2.58486
H          3.58058        2.68400        1.85958
H          4.40003        1.73617        3.12522
H          5.14267        1.95093        1.57789
H          1.99122        0.66661        3.37360
H          1.48617        1.61451        1.99264
H          1.31652       -0.21504        2.05430
H          3.39477       -1.63046        2.36801
H          5.00234       -0.62854        2.59472
H          3.76449       -0.48019        3.67320
Na         4.18673       -1.61893       -1.39735
Mg         5.35885       -0.86198       -2.40301
C          7.54191       -7.27625       -2.47476
C          7.21299       -6.97738       -0.15137
O          7.04401       -6.41220       -1.45501
C          6.95062       -8.68573       -2.47182
C          8.69139       -7.06150        0.29520
H          7.25900       -6.87535       -3.44572
H          8.65299       -7.28245       -2.49653
H          6.67785       -6.36691        0.58274
H          6.72290       -7.96245       -0.05653
H          9.14149       -6.05142        0.39914
H          8.75683       -7.57537        1.27891
H          9.31219       -7.65512       -0.40793
H          5.84480       -8.61708       -2.42474
H          7.24855       -9.20837       -3.40213
H          7.33623       -9.28475       -1.62273
H          4.09129        2.08449       -2.53856
C          6.21478        2.28706       -2.12798
C          5.00905        1.44050       -2.54965
C          7.29401        2.06460       -3.18078
H          5.95960        3.37323       -2.06607
H          6.56462        1.97293       -1.12019
H          7.47588        0.97484       -3.26222
H          6.91752        2.44816       -4.15919
C          8.60357        2.73274       -2.84729
H          5.10531        1.17671       -3.58562
H          8.47738        3.83297       -2.79564
H          8.97863        2.33914       -1.88073
H          9.32548        2.47668       -3.65080
C          3.55017       -0.19138       -5.03383
C          2.90626       -0.88294       -6.05105
C          2.87262       -2.19975       -5.67252
C          3.49065       -2.24243       -4.44353
N          3.92659       -1.06310       -4.05392
C          3.82651       -3.53160       -3.72269
N          4.97672       -3.31685       -2.84990
C          6.31779       -3.01575       -3.70218
H          2.58247       -0.46896       -6.98945
H          3.80300        0.83961       -5.12909
H          2.49487       -3.02749       -6.25566
H          4.01743       -4.35138       -4.43219
H          2.94636       -3.82238       -3.12127
C          6.38581       -1.75539       -4.63859
C          7.66418       -2.80251       -2.90447
C          6.64444       -4.18041       -4.66072
H          6.30362       -0.80366       -4.08747
H          7.37674       -1.64942       -5.13786
H          5.71449       -1.80998       -5.51178
H          8.07829       -3.72001       -2.45331
H          8.52100       -2.56653       -3.56576
H          7.66566       -1.91716       -2.24046
H          6.70054       -5.07434       -4.06354
H          5.89863       -4.29813       -5.46445
H          7.62857       -4.02430       -5.16256
