96
speciation1131.ct
Na         5.52501       -1.67529        6.00581
Mg         2.61183        3.71101        3.03579
C          3.76757       -3.62904        7.65253
C          5.42426       -2.66453        9.01780
O          5.10591       -3.16673        7.73276
C          2.70018       -2.54779        7.87063
C          6.85111       -2.13619        9.02977
H          3.63144       -4.02481        6.62366
H          3.60580       -4.49098        8.33592
H          4.77327       -1.81584        9.31191
H          5.35770       -3.48295        9.76888
H          6.94585       -1.27785        8.33114
H          7.10641       -1.78765       10.05408
H          7.56361       -2.93326        8.73312
H          2.88200       -1.68218        7.20007
H          1.69900       -2.97278        7.64734
H          2.67459       -2.20729        8.92590
H          4.64964        5.45092        2.39774
C          5.49467        3.75491        1.33819
C          4.65252        4.34240        2.48409
C          4.91343        4.08000       -0.03692
H          6.53654        4.15111        1.40336
H          5.53901        2.65378        1.46566
H          3.87108        3.71146       -0.05894
H          4.92268        5.18027       -0.20227
C          5.69078        3.39855       -1.16992
H          5.17864        4.09064        3.42922
H          6.71677        3.81354       -1.27601
H          5.76172        2.30345       -0.99379
H          5.14735        3.55951       -2.12504
C          1.47337        0.84442        3.09637
C          1.60830       -0.46675        3.48119
C          2.90494       -0.62767        3.89861
C          3.50298        0.60162        3.74733
N          2.62010        1.53823        3.27229
C          4.88117        0.91825        4.23696
N          5.95314       -0.15171        4.24164
C          7.26912        0.52542        4.56828
H          0.82859       -1.21727        3.49260
H          0.54706        1.25791        2.76821
H          3.33994       -1.52543        4.32005
H          4.71614        1.29416        5.26601
H          5.17245        1.77232        3.61478
C          7.19125        1.39061        5.86886
C          8.35086       -0.53405        4.78736
C          7.76438        1.44256        3.41806
H          6.80335        0.79137        6.71898
H          8.18845        1.79312        6.14459
H          6.55012        2.29338        5.74108
H          8.49972       -1.13378        3.86639
H          9.31959       -0.03749        5.03002
H          8.08629       -1.19976        5.62940
H          7.84789        0.88706        2.45965
H          7.12924        2.32743        3.25382
H          8.75666        1.88620        3.66681
Mg         4.09117        4.46715        5.76428
C          1.37999        5.66450        1.05773
C         -0.18084        4.07820        1.88820
O          1.19931        4.37162        1.65599
C          0.57532        6.83607        1.66586
C         -1.01642        3.93957        0.59303
H          2.44619        5.92492        1.11432
H          1.14655        5.61502       -0.03714
H         -0.25040        3.12061        2.40337
H         -0.64561        4.80002        2.58562
H         -0.59882        3.15244       -0.06967
H         -2.06140        3.66127        0.85527
H         -1.07130        4.89058        0.02452
H          0.70798        6.91214        2.75636
H          0.88020        7.79526        1.20235
H         -0.51434        6.73537        1.47558
C          5.58528        6.99710        6.51085
C          5.26141        8.28393        6.09614
C          4.09281        8.18894        5.36349
C          3.74490        6.84691        5.37639
N          4.67165        6.14892        6.02675
C          2.49948        6.18710        4.76316
N          2.42812        4.68252        4.92689
C          1.65053        4.11279        6.06451
H          5.82888        9.18462        6.30050
H          6.43991        6.71992        7.09602
H          3.56772        9.00955        4.88539
H          1.59103        6.68329        5.15399
H          2.56972        6.41138        3.68606
C          0.22460        4.68421        6.26073
C          1.51496        2.61878        5.81066
C          2.40901        4.26146        7.41687
H         -0.38515        4.58336        5.34380
H         -0.29202        4.11949        7.07704
H          0.24003        5.74208        6.59810
H          2.52780        2.19731        5.66908
H          1.03685        2.07960        6.65500
H          0.88453        2.48585        4.91450
H          3.39778        3.75288        7.40529
H          2.55080        5.32855        7.68959
H          1.84485        3.77006        8.23890
