83
speciation294.ct
Na         1.26332       -0.02985       -2.01839
Mg         7.11658        1.20914       -4.62058
C         -0.31305        2.31816       -1.07674
C         -1.75290        1.07628       -2.39132
O         -0.63326        1.01840       -1.48451
C         -1.36622        2.98005       -0.18027
C         -2.15248       -0.28286       -2.92867
H          0.59446        2.22793       -0.45734
H         -0.11104        2.91915       -1.96010
H         -2.66943        1.44028       -1.88708
H         -1.57820        1.76782       -3.23391
H         -2.59347       -0.87597       -2.10832
H         -2.95739       -0.16200       -3.68428
H         -1.28815       -0.79699       -3.39582
H         -1.54363        2.35036        0.71438
H         -1.02823        3.98096        0.14350
H         -2.32037        3.16542       -0.70968
C          0.89955        1.32276       -4.93699
C          1.07809        1.81352       -6.20924
C          2.39029        1.65476       -6.49931
C          2.99157        1.13274       -5.37845
N          2.04986        0.87290       -4.35907
C          4.51638        0.87533       -5.46221
N          5.38589        2.00747       -5.04132
C          5.68107        3.25895       -5.77035
H          0.32889        2.23205       -6.87283
H         -0.03947        1.31413       -4.46389
H          2.85991        1.89534       -7.44387
H          4.80073        0.52207       -6.47900
H          4.72249        0.02016       -4.78360
C          4.43659        4.11088       -6.06508
C          6.58309        4.09026       -4.83511
C          6.45829        2.96734       -7.06136
H          3.83898        4.26480       -5.14498
H          4.73573        5.10760       -6.45654
H          3.81519        3.67988       -6.85339
H          7.51517        3.53908       -4.58668
H          6.86468        5.06112       -5.29774
H          6.05782        4.30517       -3.88316
H          7.39242        2.40996       -6.83192
H          5.84580        2.36425       -7.76163
H          6.73803        3.91840       -7.56655
Na         4.07589        2.39906       -3.10548
C          0.98175       -1.61834        0.74486
C         -0.77403       -2.38207       -0.61772
O          0.50723       -1.73070       -0.60871
C          1.21287       -2.98461        1.42590
C         -1.86506       -1.83412        0.35903
H          1.96492       -1.14145        0.74206
H          0.36221       -0.94665        1.38287
H         -1.15627       -2.37732       -1.64421
H         -0.63964       -3.46381       -0.41023
H         -2.10678       -0.76729        0.17580
H         -2.79942       -2.42766        0.24350
H         -1.59083       -1.94496        1.43153
H          1.80564       -3.64214        0.75663
H          1.76476       -2.85772        2.38206
H          0.25581       -3.49076        1.67318
C          4.01401       -1.11977       -0.89794
C          5.18244       -0.88441       -0.19507
C          5.12363        0.42035        0.21907
C          3.91405        0.91060       -0.22956
N          3.22541       -0.02019       -0.91635
C          3.42737        2.27340        0.02779
N          2.76590        2.79065       -1.16964
C          2.70612        4.30582       -1.16155
H          5.98508       -1.58549       -0.00477
H          3.75096       -2.06059       -1.35804
H          5.87045        0.95281        0.80273
H          2.69890        2.25010        0.86205
H          4.29945        2.87476        0.34910
C          4.10829        4.96416       -1.25836
C          1.94712        4.82353       -2.40867
C          2.02782        4.85070        0.11687
H          4.63869        4.62286       -2.16447
H          4.00237        6.07238       -1.32443
H          4.74912        4.79336       -0.37464
H          0.88457        4.58141       -2.43861
H          1.95967        5.93556       -2.44145
H          2.42093        4.44930       -3.33751
H          1.04950        4.38619        0.27521
H          2.64206        4.64512        1.01843
H          1.88536        5.95149        0.05904
