66
speciation189.ct
Na         1.45272        1.61989        0.03708
Mg         3.36314       -0.31926       -1.62200
H          4.42688       -0.97400       -3.93280
C          6.25164        0.07874       -3.21735
C          4.68098       -0.07454       -3.36329
C          7.00483        0.43567       -4.49937
H          6.68483        0.86738       -2.62754
H          6.63150       -0.82122       -2.69647
H          6.64064        1.36609       -4.99107
H          8.08299        0.61952       -4.25967
C          6.87597       -0.69107       -5.44758
H          4.21690        0.76399       -3.97531
H          7.25071       -1.59344       -4.91904
H          5.80425       -0.78314       -5.70877
H          7.47026       -0.45336       -6.34504
C         -1.55582        1.00980       -0.07154
C         -2.35098       -0.11830       -0.06084
C         -1.50706       -1.21068       -0.07300
C         -0.23043       -0.69868       -0.07198
N         -0.27345        0.63940       -0.06284
C          1.08053       -1.43293       -0.06588
N          2.15923       -0.51027        0.02441
C          3.03653       -0.57777        1.25182
H         -3.43355       -0.12977       -0.03673
H         -1.88970        2.03927       -0.05537
H         -1.77747       -2.24881       -0.06376
H          1.15259       -2.02586       -1.01869
H          1.04783       -2.16342        0.78058
C          3.78002       -1.90889        1.36341
C          4.00026        0.51034        1.06153
C          2.24731       -0.32045        2.55843
H          4.27624       -2.17397        0.40127
H          4.57021       -1.81787        2.15380
H          3.10254       -2.74431        1.66754
H          3.35284        1.37860        0.94414
H          4.70350        0.66178        1.90139
H          4.55240        0.29093        0.13592
H          1.64155        0.60073        2.50046
H          1.59098       -1.17652        2.83683
H          2.98309       -0.19041        3.39362
Mg         4.22579        2.90923        1.34417
C          5.24471        2.28095       -1.38660
C          5.06603        2.71964       -2.70457
C          4.01556        3.54762       -2.71681
C          3.62237        3.63170       -1.42074
N          4.38840        2.91539       -0.60395
C          2.54829        4.44350       -0.93120
N          1.92975        3.74632        0.19021
C          0.85564        4.48443        0.86691
H          5.57507        2.49356       -3.61107
H          5.94484        1.57172       -0.95923
H          3.61492        4.04130       -3.58484
H          1.83267        4.60917       -1.75621
H          3.07300        5.34918       -0.58299
C         -0.34441        4.73236       -0.08799
C          0.46594        3.64511        2.10136
C          1.34367        5.85581        1.36862
H         -0.55471        3.88803       -0.77861
H         -1.25812        4.97267        0.49412
H         -0.14609        5.61809       -0.73593
H          1.32824        3.59911        2.80628
H         -0.38608        4.10203        2.64515
H          0.20753        2.60055        1.83824
H          2.22063        5.74112        2.03889
H          1.63682        6.50535        0.51699
H          0.52337        6.37320        1.90399
