83
speciation311.ct
Na         1.08175       -0.14442        0.11184
Mg         1.66325       -4.14104       -4.36228
C          1.10222        1.22581        2.81941
C         -1.02699        0.28407        2.25968
O          0.20579        0.81228        1.79135
C          1.34334        0.21522        3.94996
C         -1.94035        1.35725        2.85740
H          2.08506        1.40239        2.33865
H          0.78801        2.20894        3.23379
H         -1.56341       -0.14156        1.38943
H         -0.88731       -0.55741        2.96712
H         -2.17482        2.13011        2.09603
H         -2.89023        0.88706        3.19231
H         -1.47250        1.84043        3.73964
H          1.64613       -0.76546        3.52963
H          2.15293        0.58919        4.61182
H          0.44095        0.09551        4.58613
C         -1.23787       -4.05958       -4.68030
C         -2.37998       -3.39592       -4.28244
C         -1.97745       -2.42871       -3.38826
C         -0.60798       -2.54716       -3.26536
N         -0.15877       -3.53683       -4.06986
C          0.28218       -1.71273       -2.37036
N         -0.06747       -1.78421       -0.92741
C          0.08962       -3.10149       -0.23745
H         -3.38766       -3.60015       -4.61228
H         -1.19348       -4.87796       -5.38804
H         -2.62296       -1.72384       -2.88416
H          0.18029       -0.65550       -2.69637
H          1.34037       -1.97852       -2.52461
C          1.53454       -3.60556       -0.32290
C         -0.24971       -2.90880        1.24651
C         -0.87809       -4.18519       -0.77637
H          2.22811       -2.89775        0.16571
H          1.64040       -4.59892        0.16729
H          1.82890       -3.70340       -1.37398
H         -1.29371       -2.55070        1.36206
H         -0.15236       -3.86960        1.79871
H          0.44329       -2.17626        1.70791
H         -1.92974       -3.82522       -0.74328
H         -0.63523       -4.51964       -1.79698
H         -0.81234       -5.10995       -0.16440
Na        -2.10423       -1.18801       -0.71311
C          4.12462       -0.43779       -0.49529
C          3.50977        1.82879       -0.44498
O          3.04985        0.48742       -0.43609
C          4.93580       -0.48714        0.80237
C          2.33598        2.78877       -0.51735
H          3.69205       -1.43752       -0.68051
H          4.78491       -0.24645       -1.37243
H          4.07237        2.07174        0.48220
H          4.14060        2.02140       -1.34387
H          1.69826        2.68092        0.38061
H          2.71431        3.83363       -0.55224
H          1.73428        2.59150       -1.42729
H          4.25904       -0.64326        1.66717
H          5.66856       -1.31913        0.75573
H          5.51254        0.45073        0.95115
C          3.62422       -1.85317       -4.16891
C          4.97868       -1.76778       -4.40197
C          5.39730       -3.03557       -4.77654
C          4.27379       -3.83090       -4.74394
N          3.21032       -3.11116       -4.38477
C          4.15778       -5.29538       -5.05958
N          2.75825       -5.74075       -4.84253
C          2.54909       -6.80657       -3.83434
H          5.59064       -0.88111       -4.31457
H          2.97482       -1.03624       -3.87178
H          6.40125       -3.33509       -5.03852
H          4.88879       -5.85105       -4.44326
H          4.42898       -5.45185       -6.12382
C          3.05789       -6.36601       -2.45253
C          1.03353       -7.05527       -3.73941
C          3.23529       -8.12620       -4.24262
H          2.57768       -5.42027       -2.19929
H          2.80432       -7.11397       -1.67181
H          4.15358       -6.20775       -2.42463
H          0.63075       -7.39237       -4.71881
H          0.80300       -7.83248       -2.97854
H          0.50467       -6.12404       -3.44964
H          2.85953       -8.47450       -5.22718
H          4.33682       -8.01838       -4.30294
H          3.02213       -8.91547       -3.48741
