96
speciation1067.ct
Na         1.70498       -0.23551       -1.29422
Mg         0.14832       -4.05041        2.64131
C          3.41462        2.34317        0.33891
C          4.39506        0.31924        0.95222
O          3.29550        0.90238        0.22689
C          4.60400        2.99606       -0.39592
C          4.12151       -1.08530        1.47014
H          2.48483        2.82379       -0.01712
H          3.50260        2.66230        1.40822
H          5.29870        0.29520        0.30983
H          4.65502        0.89090        1.88508
H          3.78477       -1.74127        0.64744
H          5.05616       -1.49525        1.91404
H          3.38293       -1.08322        2.28957
H          4.54328        2.82345       -1.48612
H          4.58113        4.09832       -0.21814
H          5.58535        2.64541       -0.00749
H          1.18970       -4.00831        5.12806
C          3.01370       -4.55496        4.15631
C          1.48425       -4.64802        4.26990
C          3.58012       -5.49590        3.08812
H          3.32315       -3.50915        3.93660
H          3.44314       -4.84272        5.14239
H          3.22847       -6.53470        3.27245
H          3.23087       -5.16960        2.08536
C          5.11062       -5.50520        3.12823
H          1.21178       -5.69219        4.52367
H          5.51615       -4.48121        2.98681
H          5.46532       -5.90020        4.10618
H          5.50793       -6.16235        2.32600
C         -0.50341       -6.14932        1.24891
C         -0.59230       -6.86340        0.08745
C         -0.11882       -6.03978       -0.91555
C          0.23950       -4.82395       -0.33334
N         -0.00198       -4.93530        0.99882
C          0.92844       -3.64705       -1.10236
N          0.22834       -2.32366       -1.27973
C         -0.84516       -2.27804       -2.31991
H         -0.94811       -7.88359        0.01050
H         -0.77016       -6.49671        2.24102
H         -0.03327       -6.31737       -1.95325
H          1.21908       -4.03535       -2.09616
H          1.88765       -3.46175       -0.58391
C         -1.96590       -3.31559       -2.07494
C         -1.48836       -0.88651       -2.25443
C         -0.27150       -2.49358       -3.74060
H         -2.40478       -3.19775       -1.06244
H         -2.78112       -3.19181       -2.82410
H         -1.59950       -4.34793       -2.19997
H         -0.71706       -0.10722       -2.39679
H         -2.27031       -0.76607       -3.03942
H         -1.96743       -0.72332       -1.26545
H          0.54050       -1.77011       -3.95725
H          0.11998       -3.52189       -3.87794
H         -1.06850       -2.36784       -4.50881
Mg        -0.49780       -1.72271        0.33429
C          1.14388        1.37557       -4.40274
C          3.10078        0.32412       -3.85366
O          1.85739        0.74014       -3.32027
C         -0.00922        2.29742       -3.99991
C          3.90305       -0.40818       -2.80539
H          1.82247        2.08597       -4.93847
H          0.77006        0.63039       -5.14145
H          2.96336       -0.36669       -4.72018
H          3.70477        1.21359       -4.14489
H          3.38318       -1.34109       -2.50297
H          4.90390       -0.65719       -3.21144
H          4.03909        0.25735       -1.93878
H          0.32842        3.06231       -3.27229
H         -0.35771        2.83605       -4.91399
H         -0.88161        1.74379       -3.61038
C          0.41522        1.15416        0.95465
C          1.12350        1.52426        2.09753
C          1.32990        0.36387        2.81613
C          0.75545       -0.61052        2.07221
N          0.17508       -0.16233        0.99908
C          0.64743       -2.03787        2.33758
N         -0.75907       -2.44353        2.21786
C         -1.67965       -1.95991        3.30193
H          1.46997        2.50953        2.37794
H          0.11963        1.83283        0.15123
H          1.86905        0.23887        3.73631
H          1.16246       -2.33714        3.24068
H          1.18817       -2.53244        1.48927
C         -1.91759       -0.43753        3.24652
C         -3.08688       -2.59759        3.17112
C         -1.12212       -2.38526        4.66589
H         -2.26078       -0.14139        2.22856
H         -2.68183       -0.12773        3.97998
H         -1.03501        0.14621        3.53460
H         -3.06816       -3.70119        3.27677
H         -3.73678       -2.21109        3.99374
H         -3.58271       -2.32604        2.21566
H         -1.06011       -3.49818        4.70428
H         -0.11817       -1.96466        4.85462
H         -1.76411       -2.03935        5.49885
