81
speciation361.ct
Na         1.12667        0.20813        0.05768
Mg        -1.93155       -0.56692        1.86574
C          0.11272       -0.79122       -2.53646
C         -0.59632        1.47379       -2.36126
O         -0.17594        0.29872       -1.66905
C          1.11609       -0.48957       -3.65771
C         -1.96241        1.29718       -3.04615
H          0.54267       -1.58620       -1.90214
H         -0.81340       -1.23567       -2.95052
H         -0.71958        2.29569       -1.63731
H          0.16649        1.83586       -3.07977
H         -2.73933        1.03537       -2.29706
H         -2.25760        2.24252       -3.54945
H         -1.93355        0.50890       -3.82690
H          2.01786       -0.01847       -3.23728
H          1.39998       -1.43159       -4.17114
H          0.68530        0.18537       -4.42534
H         -3.76260       -2.45540        2.10006
C         -4.02051       -1.57373        0.12731
C         -3.75199       -1.45396        1.61925
C         -2.96008       -2.45569       -0.53606
H         -5.02834       -2.01772       -0.02480
H         -4.00107       -0.55704       -0.32221
H         -1.95063       -2.01487       -0.37975
H         -2.98203       -3.46845       -0.07735
C         -3.22053       -2.59193       -2.03252
H         -4.52527       -0.81501        2.09513
H         -4.22311       -3.03499       -2.21147
H         -3.17195       -1.59782       -2.52420
H         -2.45258       -3.25500       -2.48384
C          2.58048       -3.36646        2.61236
C          1.32999       -3.83147        2.26710
C          0.43696       -2.78042        2.41453
C          1.12155       -1.71568        2.83244
N          2.49494       -2.01417        2.96919
C          0.55166       -0.38217        3.21001
N         -0.15572        0.29838        2.10618
C         -0.70126        1.64278        2.51381
H          1.10291       -4.84384        1.96195
H          3.49411       -3.94609        2.62090
H         -0.63218       -2.82339        2.25519
H          1.40914        0.22775        3.55208
H         -0.13632       -0.56093        4.05947
C          0.35182        2.63188        3.07762
C         -1.33579        2.27960        1.27248
C         -1.80785        1.51388        3.59033
H          1.10973        2.89734        2.34910
H         -0.12894        3.59873        3.34033
H          0.84322        2.26440        3.99907
H         -2.13678        1.62834        0.85955
H         -1.77887        3.27234        1.50883
H         -0.55374        2.42834        0.50671
H         -2.64859        0.88433        3.23911
H         -1.41967        1.10764        4.54521
H         -2.22123        2.51929        3.83299
Mg         3.96222       -0.81089        1.11662
C          4.09325       -3.58910       -2.97732
C          3.11000       -3.71131       -2.02136
C          3.01392       -2.49581       -1.35657
C          3.91048       -1.66713       -1.90181
N          4.61966       -2.29716       -2.94021
C          4.19717       -0.24412       -1.54592
N          3.47217        0.33527       -0.38731
C          4.04117        1.66908       -0.03327
H          2.52904       -4.60310       -1.83518
H          4.42068       -4.36477       -3.66195
H          2.34161       -2.25841       -0.54554
H          4.03049        0.35641       -2.45603
H          5.28031       -0.27211       -1.33698
C          3.91355        2.70202       -1.18421
C          3.23598        2.18947        1.13377
C          5.52563        1.57903        0.41232
H          2.85553        2.82329       -1.49797
H          4.29788        3.69460       -0.85812
H          4.51773        2.42398       -2.07293
H          3.27071        1.49247        1.99331
H          3.60045        3.19388        1.46401
H          2.20081        2.28440        0.75333
H          5.65460        0.80094        1.19354
H          6.21418        1.36130       -0.42890
H          5.87518        2.55201        0.82469
