83
speciation713.ct
Na         1.06052       -0.00663        0.07933
Mg         1.77454        1.23594        4.07989
C          4.61260        2.26758        4.36374
C          3.28609        4.16373        4.31352
O          3.27390        2.74481        4.12274
C          5.22113        2.56790        5.75596
C          1.97603        4.83871        4.00103
H          4.62964        1.17638        4.27088
H          5.31018        2.64106        3.57414
H          3.51716        4.44313        5.36515
H          4.04359        4.63299        3.63229
H          1.19780        4.47018        4.69485
H          2.10895        5.93470        4.16607
H          1.69474        4.66971        2.94415
H          4.54500        2.21458        6.55882
H          6.20057        2.04980        5.85815
H          5.44530        3.64683        5.90134
C         -1.05396        1.97168        3.56012
C         -2.22576        2.40238        3.01057
C         -2.05420        2.33944        1.69239
C         -0.80284        1.83175        1.47526
N         -0.08109        1.68957        2.67736
C         -0.67528        1.35730        0.05067
N         -1.30948       -0.00663        0.07933
C         -1.71899       -0.71627       -1.14459
H         -3.13377        2.67284        3.50867
H         -1.01884        1.82325        4.58214
H         -2.80931        2.55459        0.94224
H          0.24508        1.59511       -0.53539
H         -1.30675        2.00372       -0.58547
C         -0.49529       -1.31372       -1.83229
C         -2.64587       -1.86568       -0.71091
C         -2.47772        0.19573       -2.12562
H          0.04338       -1.98118       -1.12468
H         -0.78603       -1.91460       -2.72062
H          0.16908       -0.49264       -2.16794
H         -3.54776       -1.46524       -0.19998
H         -2.97239       -2.46982       -1.58478
H         -2.12108       -2.54163        0.00043
H         -3.36937        0.63653       -1.63236
H         -1.82725        1.01183       -2.50217
H         -2.81289       -0.38873       -3.00989
Na        -1.81884       -0.88113        1.96487
C          0.40581        1.79943        6.64090
C          2.05648        0.21909        7.16192
O          1.26853        0.82218        6.09642
C          0.96685        2.82248        7.61934
C          1.21040       -0.63817        8.14063
H          0.20754        2.50343        5.84604
H         -0.53140        1.31676        7.01785
H          2.84577       -0.44507        6.76762
H          2.64551        0.96293        7.73309
H          0.71641       -1.48465        7.62482
H          1.85662       -1.06147        8.93885
H          0.43689       -0.03593        8.65196
H          1.84063        3.31447        7.14310
H          0.17412        3.58108        7.79733
H          1.23275        2.38241        8.59707
C          2.88781       -1.45240        4.31140
C          3.86326       -2.32025        3.89570
C          4.45483       -1.74052        2.80052
C          3.76072       -0.56113        2.54507
N          2.86823       -0.34515        3.54250
C          4.02123        0.39240        1.39251
N          3.43052       -0.00663        0.07933
C          3.82135       -1.31241       -0.54756
H          4.11638       -3.26747        4.35337
H          2.25103       -1.62025        5.16144
H          5.26532       -2.17128        2.23043
H          5.10829        0.60045        1.30630
H          3.54318        1.35704        1.65806
C          3.19294       -2.57498        0.14431
C          3.23054       -1.38779       -1.96741
C          5.35198       -1.38257       -0.71035
H          2.11783       -2.68926       -0.09460
H          3.71745       -3.49918       -0.18170
H          3.12395       -2.63486        1.21260
H          3.54772       -0.54855       -2.61174
H          3.50040       -2.35478       -2.45317
H          2.13377       -1.36926       -1.91155
H          5.68288       -0.54135       -1.36186
H          5.89792       -1.30715        0.24468
H          5.64966       -2.32895       -1.21181
