96
speciation1092.ct
Na         7.68900        3.80458        5.09812
Mg         3.86166        4.59918        1.70350
C         10.46676        4.64926        6.18239
C         10.36894        5.11208        3.88027
O          9.95967        4.24656        4.92181
C          9.90853        5.98409        6.69060
C          9.76417        4.64993        2.56757
H         10.16881        3.86459        6.90986
H         11.57924        4.65471        6.18088
H         10.02766        6.15547        4.04038
H         11.47622        5.07781        3.77344
H          8.66312        4.72193        2.63273
H         10.11629        5.30400        1.74125
H         10.05337        3.60066        2.35174
H          8.79874        5.96802        6.68010
H         10.25717        6.15314        7.73113
H         10.27589        6.83764        6.08582
H          6.19046        5.48915        0.54463
C          6.68935        3.38942        0.23887
C          5.99920        4.52039        1.05060
C          6.05702        3.19279       -1.13127
H          7.76811        3.63403        0.11531
H          6.61643        2.43012        0.79760
H          5.04414        2.82272       -0.92240
H          6.05794        4.15575       -1.69159
C          6.73519        2.13408       -2.00271
H          6.52771        4.56576        2.01623
H          6.14188        2.00698       -2.93672
H          6.76671        1.15610       -1.47934
H          7.76335        2.44077       -2.28670
C          2.42280        1.89429        2.32224
C          2.49508        0.71480        3.04724
C          3.66955        0.76133        3.75950
C          4.22602        1.99868        3.47578
N          3.50792        2.68468        2.55870
C          5.51173        2.43915        4.11964
N          5.36939        3.35308        5.27823
C          4.98614        2.77986        6.61322
H          1.78905       -0.11089        3.07924
H          1.61998        2.13534        1.64657
H          4.05020        0.01336        4.43979
H          6.07020        2.96657        3.33819
H          6.16873        1.58054        4.35178
C          5.90883        1.61591        7.03110
C          5.11899        3.91158        7.64427
C          3.51540        2.28380        6.70979
H          6.96765        1.94503        7.06493
H          5.62547        1.24982        8.04373
H          5.80873        0.75109        6.34649
H          4.44073        4.75246        7.37659
H          4.83721        3.55752        8.66174
H          6.15895        4.29501        7.67960
H          2.77203        3.07963        6.54196
H          3.29041        1.43230        6.06511
H          3.30500        1.91522        7.73896
Mg         4.85542        5.53875        4.57034
C          2.10312        4.30572       -0.84438
C          3.13365        6.40918       -0.49009
O          2.74079        5.16869        0.09959
C          2.70441        4.25249       -2.27150
C          1.94076        7.34384       -0.74691
H          2.09693        3.28153       -0.41724
H          1.03376        4.60151       -0.93534
H          3.84702        6.90312        0.17302
H          3.74327        6.29245       -1.40914
H          1.36059        7.51053        0.18079
H          2.31200        8.32803       -1.11187
H          1.27551        6.92387       -1.52506
H          3.62992        3.86301       -1.87676
H          2.07570        3.49324       -2.77246
H          3.48632        4.28579       -3.06295
C          4.08343       10.30169        4.87611
C          5.03550        9.51111        5.47894
C          5.13859        8.34267        4.74062
C          4.27162        8.41874        3.72923
N          3.57605        9.64837        3.74405
C          4.01878        7.36587        2.68674
N          3.56893        6.05919        3.20751
C          2.22035        6.05017        3.88666
H          5.58723        9.76585        6.37346
H          3.75926       11.27708        5.21475
H          5.79181        7.50823        4.95363
H          4.97736        7.21012        2.14842
H          3.27345        7.77494        1.98587
C          1.07991        6.52540        2.96796
C          1.91652        4.61676        4.29067
C          2.20847        6.86851        5.20206
H          1.04251        5.90637        2.04727
H          0.10053        6.42694        3.48713
H          1.19143        7.59181        2.68903
H          2.79829        4.21644        4.81074
H          1.01808        4.54453        4.94379
H          1.69236        4.02402        3.39905
H          3.04508        6.56902        5.86888
H          2.23066        7.95763        5.03402
H          1.25540        6.70892        5.75662
