83
speciation583.ct
Na         1.19681        1.53565        0.09655
Mg         3.18162       -0.28754       -1.74183
C         -0.03370        3.05664        2.63418
C          2.29641        3.54737        2.50528
O          1.23032        2.70269        2.06101
C         -0.49039        4.51698        2.43458
C          2.56999        3.48409        4.01715
H         -0.80464        2.40223        2.18490
H         -0.04971        2.80285        3.71701
H          3.23389        3.23384        2.03135
H          2.14891        4.59427        2.17397
H          2.81754        2.44839        4.33096
H          3.43485        4.14055        4.25596
H          1.71159        3.85599        4.61311
H         -0.58466        4.77946        1.36574
H         -1.49283        4.65634        2.88894
H          0.18913        5.23797        2.93438
C         -1.81829        0.53954        0.15732
C         -2.36929       -0.71900        0.07396
C         -1.31152       -1.60234       -0.02872
C         -0.16461       -0.83568        0.00020
N         -0.48331        0.46154        0.10747
C          1.25873       -1.38321       -0.07354
N          2.27127       -0.30706       -0.01274
C          3.29603       -0.38887        1.03962
H         -3.41884       -0.96333        0.08239
H         -2.36831        1.47979        0.23416
H         -1.37942       -2.67911       -0.11475
H          1.37939       -1.92217       -1.04009
H          1.38402       -2.12785        0.73470
C          4.15043       -1.66882        0.94642
C          4.22596        0.80138        0.80329
C          2.64493       -0.29926        2.43272
H          4.64280       -1.74249       -0.04672
H          4.94464       -1.64863        1.72636
H          3.54794       -2.58345        1.10885
H          3.63738        1.72348        0.69782
H          4.97848        0.90821        1.61277
H          4.75093        0.67017       -0.16261
H          1.97232        0.56468        2.49766
H          2.03482       -1.19814        2.65246
H          3.41531       -0.20714        3.22644
Na         3.65845        2.60009       -1.89021
C          5.27931        4.80748       -0.66029
C          6.46257        2.78966       -1.12502
O          5.22210        3.38958       -0.78669
C          5.85857        5.56263       -1.85697
C          7.41850        2.76552        0.06671
H          4.25532        5.18529       -0.54478
H          5.77917        5.09205        0.28792
H          6.27128        1.73734       -1.41885
H          6.93112        3.24036       -2.02040
H          6.96056        2.21232        0.91278
H          8.36389        2.26229       -0.22306
H          7.66309        3.79521        0.39737
H          5.33851        5.25936       -2.78948
H          5.71090        6.65135       -1.69733
H          6.94982        5.39497       -1.94857
C          4.27821        1.14563       -4.68037
C          3.51023        0.52189       -5.64629
C          2.19863        0.60204       -5.21835
C          2.23203        1.27441       -4.00875
N          3.48702        1.60527       -3.69330
C          1.05759        1.61681       -3.13875
N          1.46198        2.43657       -1.95871
C          0.97035        3.82729       -1.96923
H          3.86703        0.06014       -6.55835
H          5.35463        1.25328       -4.69792
H          1.32718        0.21809       -5.73545
H          0.56812        0.68177       -2.79953
H          0.33722        2.14526       -3.79437
C         -0.57523        3.93126       -2.03763
C          1.40594        4.40156       -0.64084
C          1.62847        4.62950       -3.10639
H         -1.04265        3.32772       -1.23049
H         -0.88718        4.99039       -1.90523
H         -0.99382        3.60039       -3.00637
H          2.46841        4.19639       -0.47106
H          1.17992        5.48084       -0.53518
H          0.87057        3.84418        0.12342
H          2.73557        4.54901       -3.04930
H          1.30270        4.26273       -4.10126
H          1.35397        5.70322       -3.02981
