110
speciation2648.ct
Na         3.05870        1.36620        1.21502
Mg        -1.44221        3.62696        3.79307
C         -4.19196        4.33859        3.53756
C         -3.92589        2.22787        4.65100
O         -3.35276        3.23377        3.81880
C         -4.67443        5.07966        4.78408
C         -5.14150        1.51831        4.02016
H         -3.59378        5.04725        2.92930
H         -5.03859        4.04403        2.88117
H         -3.16507        1.43815        4.81626
H         -4.17448        2.62754        5.65213
H         -4.84845        0.96286        3.10360
H         -5.56319        0.79042        4.74699
H         -5.95800        2.22478        3.76773
H         -3.80561        5.38608        5.39607
H         -5.23830        5.98450        4.48265
H         -5.35746        4.44933        5.39012
H         -0.56026        7.05710        1.73929
C         -2.04915        8.19586        0.68241
C         -1.12712        6.98828        0.78517
C         -3.09670        8.21639        1.79350
H         -1.42676        9.11826        0.74574
H         -2.55200        8.17901       -0.30463
H         -3.71652        7.29797        1.72643
H         -2.60095        8.24731        2.78930
C         -3.99888        9.44055        1.64953
H         -0.41713        7.05481       -0.05937
H         -3.40570       10.37498        1.75486
H         -4.49329        9.43799        0.65426
H         -4.78156        9.42500        2.43583
C          1.14914       -1.39294        1.37297
C          1.17259       -2.52810        2.15833
C          2.37207       -2.51497        2.83006
C          3.01820       -1.36891        2.42136
N          2.24676       -0.64005        1.60552
C          4.38263       -0.94401        2.80678
N          4.73820        0.26648        2.04140
C          5.86720        1.05865        2.57453
H          0.39205       -3.27260        2.24087
H          0.32908       -1.11289        0.72741
H          2.73194       -3.25444        3.53332
H          5.08945       -1.75747        2.53078
H          4.38111       -0.80853        3.89925
C          7.17746        0.24937        2.49006
C          5.99641        2.31304        1.69936
C          5.62363        1.51998        4.03286
H          7.37683       -0.05878        1.44100
H          8.03698        0.85962        2.84190
H          7.12782       -0.66377        3.11924
H          5.06353        2.91226        1.76014
H          6.83910        2.95117        2.04198
H          6.16557        2.03765        0.63681
H          4.67987        2.10150        4.10545
H          5.57918        0.67887        4.75179
H          6.46362        2.15829        4.37912
Na         5.28517       -0.38900        0.07653
Mg        -1.77776        4.97640        0.70838
C          0.53386        2.65833        5.55799
C         -1.19498        3.85688        6.65700
O         -0.43810        3.69466        5.46369
C          0.00048        1.28552        5.99002
C         -0.34496        4.40033        7.81403
H          0.97090        2.53492        4.56558
H          1.40273        2.97303        6.17103
H         -1.98381        4.60717        6.46819
H         -1.72344        2.92686        6.95269
H          0.09523        5.38073        7.53511
H         -0.97689        4.53293        8.71719
H          0.47285        3.70053        8.08387
H         -0.90264        1.01212        5.40957
H          0.78285        0.51799        5.81422
H         -0.24447        1.27543        7.07109
H         -4.02436        3.58607       -0.39188
C         -3.82091        4.83509       -2.03927
C         -3.70638        4.64079       -0.52125
C         -3.66389        6.29494       -2.44856
H         -3.06361        4.20021       -2.54825
H         -4.83113        4.49016       -2.36921
H         -4.46186        6.89798       -1.96112
H         -2.67080        6.65952       -2.12021
C         -3.77940        6.46182       -3.96408
H         -4.49921        5.23489       -0.02025
H         -2.98016        5.88643       -4.47809
H         -4.76922        6.10987       -4.32898
H         -3.66909        7.53475       -4.22678
C          3.39948        4.03120       -0.47440
C          3.05366        5.35041       -0.65218
C          2.09656        5.62927        0.29155
C          1.85026        4.46463        0.98874
N          2.69567        3.48960        0.54735
C          0.88654        4.35131        2.17067
N         -0.51578        3.83656        1.93719
C         -0.62973        2.47007        1.36890
H          3.46117        6.03967       -1.38990
H          4.14585        3.50072       -1.05235
H          1.63513        6.59390        0.43753
H          1.42128        3.76243        2.93005
H          0.81719        5.35231        2.63600
C          0.04141        1.46065        2.28246
C         -2.10111        2.08755        1.34626
C         -0.11086        2.40773       -0.07762
H         -0.40626        1.49801        3.28504
H         -0.22769        0.47728        1.92366
H          1.13526        1.59214        2.35713
H         -2.68635        2.91230        0.97094
H         -2.27305        1.16985        0.74470
H         -2.46296        1.82503        2.34310
H         -0.37634        3.33098       -0.63748
H          0.96274        2.22359       -0.11852
H         -0.50775        1.52492       -0.61536
