96
speciation1019.ct
Na         1.08793        1.80654        0.44929
Mg         5.06052       -1.69101       -3.78647
C          1.44133        2.22228        3.73138
C          0.19178        3.84513        2.69824
O          1.16810        2.84428        2.47437
C          0.30673        1.30115        4.22877
C         -0.08233        4.59091        1.43244
H          2.40503        1.69643        3.64674
H          1.69784        2.95945        4.52651
H         -0.77475        3.41253        3.03694
H          0.56855        4.59671        3.42946
H         -0.53438        3.88029        0.71802
H         -0.79856        5.41496        1.62414
H          0.87144        5.01598        1.06671
H         -0.10600        0.67141        3.41390
H          0.68489        0.64252        5.03909
H         -0.53040        1.89654        4.64363
H          5.23879       -4.29283       -3.48208
C          7.00966       -3.89125       -4.65122
C          5.54883       -3.64736       -4.33114
C          7.93826       -3.54366       -3.49191
H          7.15330       -4.96859       -4.92916
H          7.29480       -3.26994       -5.54649
H          7.81546       -2.47799       -3.24117
H          7.68048       -4.15880       -2.59967
C          9.40497       -3.76979       -3.84667
H          4.92278       -3.90580       -5.21844
H          9.58638       -4.83772       -4.08808
H          9.68625       -3.14298       -4.72024
H         10.04772       -3.48242       -2.98714
C         -1.88883        0.87361        0.11400
C         -2.42813       -0.36496       -0.17030
C         -1.36672       -1.24317       -0.30200
C         -0.21981       -0.49972       -0.10643
N         -0.55250        0.77388        0.17260
C          1.21068       -1.02781       -0.19752
N          2.24500        0.03300       -0.00400
C          3.23524       -0.25564        1.07123
H         -3.47822       -0.59855       -0.27929
H         -2.43567        1.79548        0.26035
H         -1.42629       -2.29913       -0.52846
H          1.36304       -1.47825       -1.19843
H          1.29608       -1.85854        0.52724
C          4.11758       -1.47929        0.75282
C          4.12988        0.98905        1.22021
C          2.53719       -0.53457        2.40152
H          4.62068       -1.38117       -0.22363
H          4.88713       -1.60787        1.54779
H          3.51591       -2.41148        0.72893
H          3.52759        1.88149        1.47504
H          4.89852        0.84897        2.00982
H          4.66276        1.20358        0.28099
H          1.69942        0.14949        2.43129
H          2.08474       -1.53965        2.47959
H          3.23315       -0.42691        3.26314
Mg         3.38218        0.08335       -1.63630
C          2.70492        3.01501       -1.42209
C          0.56105        3.98101       -1.67704
O          1.31621        2.84757       -1.30793
C          3.30162        4.07269       -0.49245
C          0.65395        4.30069       -3.16400
H          3.11582        2.04487       -1.12500
H          3.01798        3.12853       -2.47502
H         -0.50438        3.74701       -1.47678
H          0.84815        4.87302       -1.09749
H          0.30766        3.43588       -3.76629
H          0.01084        5.18002       -3.37154
H          1.68956        4.57017       -3.45258
H          2.92816        3.92803        0.53889
H          4.40650        3.99106       -0.46296
H          3.06025        5.08803       -0.85689
C          0.85248       -1.45545       -5.06845
C          0.39781       -0.21854       -5.46870
C          1.41558        0.68460       -5.23604
C          2.45265        0.03002       -4.70320
N          2.17079       -1.34836       -4.58174
C          3.78315        0.68071       -4.43287
N          4.51935        0.13370       -3.26860
C          5.83470        0.85582       -3.04671
H         -0.57184       -0.00448       -5.90247
H          0.28586       -2.37516       -5.13207
H          1.39267        1.73858       -5.48488
H          3.60425        1.76713       -4.33039
H          4.37502        0.51661       -5.35451
C          5.65662        2.32081       -2.61091
C          6.60792        0.14674       -1.92623
C          6.74807        0.88568       -4.30020
H          5.15905        2.34150       -1.64445
H          6.63701        2.81810       -2.44704
H          5.12629        2.93885       -3.36252
H          6.83668       -0.89057       -2.20439
H          7.55986        0.67774       -1.69865
H          6.02173        0.12137       -0.99860
H          6.98121       -0.13416       -4.66307
H          6.30944        1.48963       -5.12216
H          7.71127        1.38993       -4.05148
