110
speciation2344.ct
Na         4.18856        2.37415        3.51674
Mg        -2.66346        8.17426        1.60092
C          4.55604        1.02494        6.28961
C          2.27600        0.60016        5.84428
O          3.47215        1.22166        5.39848
C          5.77795        1.79160        5.79904
C          2.38764       -0.93110        5.99538
H          4.30738        1.39486        7.30868
H          4.86978       -0.04023        6.30479
H          1.93856        1.05664        6.80082
H          1.48544        0.80388        5.09407
H          3.10381       -1.21855        6.79451
H          1.40501       -1.35094        6.29515
H          2.70320       -1.40010        5.03992
H          5.56596        2.87993        5.76033
H          6.62949        1.61427        6.49104
H          6.07352        1.43661        4.78790
H         -5.32357        7.56092        2.28201
C         -4.48694        7.57514        4.27635
C         -4.36216        7.29412        2.76860
C         -3.24231        7.12610        5.05071
H         -4.66286        8.65892        4.43501
H         -5.36467        7.02387        4.69151
H         -3.36021        7.39420        6.12550
H         -3.13771        6.02087        4.98549
C         -1.98107        7.78148        4.49827
H         -4.22736        6.19605        2.64627
H         -1.09348        7.42951        5.05949
H         -2.06082        8.88609        4.57512
H         -1.84061        7.49684        3.43565
C          5.65305        4.67181        1.71119
C          5.93195        5.19126        0.46667
C          5.34642        4.34790       -0.45500
C          4.71613        3.35378        0.26614
N          4.92040        3.55148        1.59445
C          3.92446        2.19850       -0.30420
N          2.80962        2.64714       -1.18786
C          1.78192        1.71875       -1.68547
H          6.49810        6.09071        0.26147
H          5.96016        5.09373        2.65889
H          5.37075        4.46115       -1.52446
H          4.60023        1.54888       -0.89438
H          3.60844        1.64017        0.58497
C          1.18735        0.92927       -0.50270
C          0.74059        2.60665       -2.40510
C          2.29545        0.73904       -2.77972
H          0.46330        1.52976        0.08613
H          1.91037        0.71771        0.26671
H          1.09506       -0.15635       -0.72262
H          1.24526        3.19709       -3.21545
H         -0.07394        2.02560       -2.88204
H          0.30059        3.34040       -1.70435
H          2.63614        1.25885       -3.70459
H          3.09121        0.06884       -2.40625
H          1.45093        0.11201       -3.14893
Na         2.05718        4.89452       -1.18446
Mg         3.90958        2.31834       -2.81331
C          5.58160        0.71211       -4.38316
C          5.90575        3.02697       -4.69600
O          4.98189        1.99780       -4.39792
C          6.67341        0.52634       -3.32207
C          5.19911        4.37514       -4.68652
H          4.77556       -0.01687       -4.16334
H          5.96103        0.44290       -5.39319
H          6.72264        3.08562       -3.94747
H          6.32212        2.87483       -5.71705
H          4.79398        4.59079       -3.67897
H          5.92342        5.17453       -4.95449
H          4.36290        4.38359       -5.41465
H          6.30048        0.82691       -2.32328
H          6.97161       -0.54246       -3.28591
H          7.58346        1.10947       -3.57055
H         -1.92538       10.70413        2.45205
C         -1.61027       11.12081        0.34253
C         -1.62565       10.14320        1.54233
C         -2.97377       11.75055        0.05321
H         -0.90299       11.95168        0.57174
H         -1.23271       10.61298       -0.57128
H         -3.32856       12.29453        0.95481
H         -2.86929       12.49206       -0.77317
C         -3.99392       10.70106       -0.36308
H         -0.57157        9.82460        1.68786
H         -3.66482       10.20672       -1.30218
H         -4.10509        9.93843        0.43482
H         -4.97645       11.18677       -0.53446
C         -3.15782        6.08138       -0.39930
C         -2.59950        5.35019       -1.42350
C         -1.28353        5.75375       -1.53982
C         -1.08057        6.70013       -0.58166
N         -2.21889        6.92274        0.12852
C          0.17807        7.46169       -0.27643
N          1.30474        7.14190       -1.18107
C          2.50360        7.96255       -0.87867
H         -3.11686        4.60625       -2.02193
H         -4.17912        6.02209       -0.04395
H         -0.57795        5.40955       -2.27170
H          0.40559        7.22387        0.77182
H         -0.11376        8.52770       -0.37949
C          2.96180        7.80345        0.59028
C          3.65639        7.49479       -1.77321
C          2.26307        9.47013       -1.17147
H          3.12904        6.73117        0.84413
H          3.89988        8.36185        0.78532
H          2.22785        8.21718        1.30588
H          3.39501        7.61595       -2.84343
H          4.58038        8.08333       -1.56702
H          3.88095        6.42731       -1.58275
H          1.93044        9.60818       -2.22050
H          1.50171        9.91883       -0.49985
H          3.19155       10.05938       -1.01359
