57
speciation257.ct
Na         1.21498       -0.03025        0.22096
C         -0.31488        2.57208       -0.17363
C          0.19545        2.18953        2.13777
O          0.02953        1.63191        0.84000
C          0.56445        3.83197       -0.24922
C         -1.12437        2.69511        2.73812
H         -0.21478        2.04763       -1.14469
H         -1.38742        2.85416       -0.09261
H          0.56976        1.38867        2.80745
H          0.97223        2.98140        2.15680
H         -1.85965        1.86657        2.81099
H         -0.94192        3.09830        3.75801
H         -1.56138        3.51571        2.13100
H          1.63342        3.55651       -0.33899
H          0.27841        4.42946       -1.14048
H          0.41782        4.48713        0.63552
C          1.95767        0.02381       -3.67260
C          2.50275       -1.10113       -4.25101
C          2.12794       -2.18040       -3.47737
C          1.38551       -1.73086       -2.46483
N          1.23154       -0.32835       -2.52548
C          0.81178       -2.61487       -1.40351
N          0.05454       -1.84071       -0.40353
C         -0.50698       -2.66680        0.70078
H          3.11492       -1.12474       -5.14238
H          2.07563        1.03593       -4.04027
H          2.39280       -3.21592       -3.65352
H          1.66549       -3.13830       -0.93546
H          0.15361       -3.35000       -1.90989
C          0.60155       -3.36914        1.51360
C         -1.27921       -1.73451        1.64363
C         -1.50582       -3.73344        0.17624
H          1.33377       -2.62717        1.90157
H          0.16621       -3.91816        2.37785
H          1.14477       -4.12734        0.91271
H         -2.10655       -1.22579        1.10740
H         -1.72030       -2.30717        2.49271
H         -0.60486       -0.95864        2.06869
H         -2.33239       -3.25173       -0.38803
H         -1.01612       -4.48061       -0.48090
H         -1.94769       -4.30361        1.01964
Na        -1.62073       -1.05185       -1.47291
C          3.92509        1.26674        0.21746
C          4.03258       -1.10932       -0.00571
O          3.31463        0.00956        0.49443
C          4.35551        1.51031       -1.24346
C          5.34665       -1.34207        0.75089
H          3.19138        2.04876        0.47513
H          4.78834        1.43474        0.89748
H          3.41198       -2.01114        0.15791
H          4.19794       -1.05498       -1.10134
H          5.14096       -1.51083        1.82898
H          5.86178       -2.23693        0.34136
H          6.03695       -0.48006        0.64432
H          3.49450        1.37732       -1.92413
H          4.73239        2.54921       -1.35295
H          5.18626        0.84047       -1.55033
