110
speciation2346.ct
Na         0.48966        0.56336        0.19915
Mg        -5.81771       -0.32280        0.67619
C         -1.71483       -1.82727        1.04675
C         -0.55907       -1.57114        2.98077
O         -0.56152       -1.16446        1.58585
C         -1.68872       -1.91855       -0.45153
C          0.65830       -1.21245        3.80981
H         -1.76856       -2.90836        1.35261
H         -2.65438       -1.32828        1.38331
H         -1.46070       -1.17940        3.51509
H         -0.56857       -2.68919        3.06710
H          0.73280       -0.12005        3.95170
H          0.52770       -1.67832        4.82092
H          1.57571       -1.64374        3.36509
H         -0.79662       -2.47774       -0.76259
H         -2.58920       -2.48973       -0.78677
H         -1.70273       -0.91848       -0.90884
H         -5.95750        0.81932        3.35828
C         -4.87692        2.58050        2.75572
C         -5.20588        1.05478        2.57331
C         -6.07691        3.55659        2.74547
H         -4.42468        2.73191        3.77174
H         -4.10815        2.91961        2.02795
H         -6.77622        3.28036        3.56149
H         -5.73462        4.60238        2.94936
C         -6.82046        3.55157        1.42568
H         -4.27178        0.53746        2.87715
H         -6.17875        3.98459        0.63123
H         -7.11317        2.51394        1.17636
H         -7.73943        4.16713        1.50986
C         -5.82161        1.76575       -1.07766
C         -5.46712        2.88851       -1.74690
C         -4.15449        3.07423       -1.46745
C         -3.70072        1.99273       -0.74235
N         -4.80749        1.18935       -0.43445
C         -2.22435        1.90159       -0.25586
N         -1.06435        1.95212       -1.24342
C         -0.79778        3.29767       -1.96207
H         -6.10304        3.55532       -2.31457
H         -6.83912        1.35696       -1.07711
H         -3.61549        3.95904       -1.74766
H         -2.13324        0.96355        0.32289
H         -2.04961        2.69662        0.51310
C         -0.93711        4.52616       -1.02489
C          0.65337        3.42999       -2.47200
C         -1.59412        3.48212       -3.32256
H         -0.19225        4.44597       -0.20273
H         -0.71246        5.46801       -1.57796
H         -1.93452        4.65863       -0.58581
H          0.82761        2.79587       -3.31988
H          0.84417        4.43859       -2.92231
H          1.38792        3.27194       -1.67845
H         -1.31260        2.70092       -4.05879
H         -2.67730        3.46491       -3.39559
H         -1.32579        4.46250       -3.78983
Na        -1.28865        0.54525       -2.84463
Mg         1.07180       -1.20231       -3.48257
C          0.52786       -1.10676       -6.01235
C          1.38304        0.95055       -5.01972
O          0.45887       -0.12732       -4.97667
C          0.81808       -0.68024       -7.46394
C          2.84541        0.85912       -5.49646
H          1.23149       -1.91422       -5.71849
H         -0.48702       -1.55498       -6.05289
H          0.88480        1.82329       -5.49495
H          1.57190        1.11548       -3.95430
H          3.01568        0.73163       -6.56884
H          3.29347        1.86376       -5.31026
H          3.43287        0.12384       -4.91195
H          1.87488       -0.47419       -7.66634
H          0.62058       -1.54993       -8.12645
H          0.18329        0.16735       -7.78763
H         -6.25301       -3.34788        0.68166
C         -8.01535       -3.30223       -0.53661
C         -7.07147       -2.60501        0.53873
C         -9.35753       -2.57313       -0.79575
H         -7.45874       -3.39486       -1.49145
H         -8.27765       -4.35274       -0.23331
H        -10.02490       -2.65965        0.09192
H         -9.12502       -1.51251       -0.97827
C        -10.13690       -3.07449       -2.03456
H         -7.65906       -2.66553        1.48467
H         -9.49226       -3.02602       -2.94002
H        -10.52919       -4.11090       -1.93029
H        -11.00978       -2.40699       -2.21726
C          1.36488       -3.55657       -1.59184
C          2.02699       -3.90966       -0.43420
C          2.80508       -2.82133       -0.07952
C          2.56586       -1.85592       -1.03930
N          1.70053       -2.30500       -1.94997
C          3.19146       -0.52252       -1.18514
N          2.97328        0.41456       -0.06281
C          4.12748        1.42180       -0.03782
H          1.95181       -4.85734        0.08307
H          0.66489       -4.17454       -2.14082
H          3.47416       -2.76077        0.76927
H          2.80729       -0.05942       -2.11813
H          4.25191       -0.76447       -1.36382
C          4.29990        2.16113       -1.40322
C          3.92477        2.49984        1.03380
C          5.49975        0.74161        0.31855
H          3.42649        2.78921       -1.61631
H          5.18087        2.84063       -1.37986
H          4.46164        1.48105       -2.26365
H          3.93190        2.06089        2.05236
H          4.77044        3.23182        0.99174
H          2.98844        3.06563        0.86851
H          5.45137        0.26538        1.31905
H          5.87824       -0.01346       -0.39557
H          6.31396        1.50152        0.35297
