66
speciation233.ct
Na         1.16003       -0.49254       -0.19379
Mg         2.13201        0.03565        1.11778
H          2.67685       -0.50791        3.80172
C          1.63201        1.36059        3.81457
C          2.65874        0.41848        3.19801
C          0.23002        0.76998        3.68013
H          1.88007        1.53096        4.88717
H          1.67461        2.33336        3.29080
H          0.00325        0.61802        2.60450
H          0.18483       -0.21338        4.19689
C         -0.82381        1.69428        4.28029
H          3.66762        0.86894        3.30856
H         -0.64313        1.82890        5.36809
H         -0.80144        2.68574        3.77937
H         -1.82968        1.24648        4.13789
C         -2.04596       -1.01253        0.24780
C         -3.05091       -0.06690        0.35622
C         -2.45754        1.16702        0.17889
C         -1.12291        0.91056       -0.04208
N         -0.86581       -0.39478        0.04937
C         -0.05697        1.88217       -0.43898
N          1.22620        1.66570        0.26822
C          2.26247        2.69864       -0.06905
H         -4.10316       -0.25812        0.52635
H         -2.16934       -2.08333        0.32635
H         -2.94786        2.13126        0.17306
H         -0.44226        2.91456       -0.33446
H          0.11064        1.67306       -1.51535
C          1.88851        4.02722        0.62597
C          3.63720        2.25860        0.45887
C          2.42687        2.96436       -1.58880
H          1.73061        3.86840        1.70943
H          2.69079        4.78451        0.50237
H          0.96138        4.46689        0.21034
H          3.97452        1.31830       -0.01946
H          4.40562        3.03705        0.25302
H          3.61270        2.12994        1.54637
H          2.74687        2.05203       -2.13100
H          1.49704        3.35559       -2.04897
H          3.20323        3.74620       -1.75346
Mg         5.23357       -0.33409        1.30169
C          6.91172       -1.14769       -1.01074
C          6.82545       -1.60417       -2.31022
C          5.48447       -1.69744       -2.60210
C          4.81807       -1.28937       -1.46858
N          5.69056       -0.94581       -0.50453
C          3.34376       -1.23728       -1.31786
N          2.90459       -1.52175        0.05212
C          2.94824       -2.91964        0.57012
H          7.64583       -1.84905       -2.96276
H          7.82617       -0.97326       -0.45502
H          5.03816       -2.02105       -3.53615
H          2.81441       -1.85517       -2.07406
H          3.04379       -0.19738       -1.54825
C          4.39926       -3.33043        0.90209
C          2.14248       -2.97029        1.87447
C          2.34976       -3.94984       -0.41137
H          4.86221       -2.59671        1.59675
H          4.42731       -4.32889        1.38872
H          5.02087       -3.41204       -0.01053
H          1.08345       -2.68509        1.70076
H          2.17070       -3.98749        2.32339
H          2.58333       -2.27993        2.60904
H          1.28606       -3.72192       -0.63036
H          2.92202       -3.98715       -1.36112
H          2.40324       -4.97059        0.03101
