95
speciation1181.ct
Na         0.99802       -0.03432        0.00138
Mg         0.48880        5.90102        1.51407
C          0.21520       -2.96397        1.34662
C          0.17960       -3.13186       -0.92684
O          0.20766       -2.19247        0.14004
C          0.05264       -2.10240        2.57305
C          0.01079       -2.46023       -2.26943
H         -0.64403       -3.67469        1.37932
H          1.15266       -3.56882        1.44412
H          1.10403       -3.75661       -0.96015
H         -0.71441       -3.79473       -0.83532
H          0.92415       -1.88475       -2.51439
H         -0.13470       -3.24043       -3.04799
H         -0.88600       -1.80692       -2.25218
H         -0.91756       -1.55537        2.53745
H          0.07642       -2.73870        3.47783
H          0.87032       -1.38030        2.63250
H          2.15842        7.65642        2.78007
C          2.65300        6.72829        4.63258
C          1.65673        6.88492        3.40382
C          2.22135        5.81298        5.80390
H          3.65570        6.40172        4.27932
H          2.78701        7.73938        5.08724
H          1.22684        6.09472        6.17941
H          2.15900        4.74945        5.40806
C          3.20667        5.80887        6.98829
H          0.75161        7.34786        3.84289
H          4.23422        5.51691        6.68298
H          3.25282        6.81196        7.46516
H          2.87341        5.08917        7.77072
C         -0.19797        3.31741        3.16004
C         -0.54606        1.97710        3.02072
C         -0.54688        1.71984        1.67212
C         -0.17760        2.89283        1.05689
N          0.01057        3.90190        1.95533
C          0.00581        3.09631       -0.38510
N         -0.11060        1.85535       -1.19061
C         -0.01712        2.19769       -2.65975
H         -0.79784        1.26979        3.80159
H         -0.10395        3.82951        4.11376
H         -0.79052        0.77308        1.20782
H          1.01565        3.52944       -0.49762
H         -0.77604        3.84049       -0.65468
C          1.36751        2.77214       -3.03889
C         -0.26258        0.93576       -3.50041
C         -1.10025        3.23255       -3.11222
H          2.17648        2.06136       -2.78050
H          1.41709        2.98112       -4.12952
H          1.56824        3.74435       -2.54504
H         -1.27159        0.52155       -3.31007
H         -0.19475        1.17159       -4.58927
H          0.50082        0.17213       -3.28044
H         -2.12538        2.87746       -2.87200
H         -0.95846        4.24313       -2.67652
H         -1.04632        3.40403       -4.20895
Na        -2.15988        1.26695       -0.97755
Mg         2.40510       -2.26240        0.66044
H         -0.13135        8.19355       -0.40189
C         -1.87998        6.98119       -0.97461
C         -0.35962        7.11555       -0.56442
C         -2.42600        7.60368       -2.32466
H         -2.08927        5.89914       -1.05427
H         -2.47362        7.41085       -0.14409
H         -2.27951        8.71782       -2.34665
H         -1.89566        7.18283       -3.20176
C         -3.93039        7.32751       -2.50812
H          0.23109        6.84945       -1.47711
H         -4.12725        6.23455       -2.53898
H         -4.52792        7.76905       -1.68176
H         -4.31329        7.75746       -3.46112
C          3.81497       -3.51208        3.00995
C          4.45022       -3.07558        4.16969
C          4.26919       -1.69251        4.23623
C          3.53292       -1.35183        3.11044
N          3.29367       -2.44400        2.36971
C          3.14992        0.02404        2.62233
N          3.07851        0.09869        1.13073
C          4.39268        0.33290        0.44173
H          5.00142       -3.68540        4.86349
H          3.79527       -4.53379        2.65520
H          4.66965       -1.03220        4.99407
H          3.83423        0.76802        3.06755
H          2.16696        0.30695        3.05319
C          5.47105       -0.77477        0.71864
C          4.13084        0.44655       -1.09697
C          4.97022        1.71096        0.83587
H          5.37286       -1.35575        1.63409
H          5.56067       -1.51771       -0.09753
H          6.47483       -0.32079        0.87127
H          3.14624        0.03218       -1.40752
H          4.99215        0.07400       -1.69847
H          4.03160        1.50262       -1.41342
H          4.23213        2.50975        0.59762
H          5.25160        1.79473        1.89805
H          5.88964        1.90322        0.23863
