83
speciation472.ct
Na         1.22536        1.43720        0.23371
Mg         4.04479        6.27169       -2.33275
C         -0.08749        2.32395        3.31110
C          2.23007        2.73849        3.05694
O          1.07598        2.12309        2.49122
C         -0.40122        3.81096        3.52073
C          2.74790        2.20036        4.40482
H         -0.95363        1.81931        2.84153
H         -0.02199        1.81479        4.30365
H          3.04275        2.74272        2.32145
H          2.01578        3.79159        3.21964
H          3.24264        3.04473        4.92502
H          3.53745        1.43763        4.30490
H          1.96342        1.82739        5.08799
H         -0.19428        4.34564        2.57171
H          0.25257        4.22475        4.32474
H         -1.44791        3.97519        3.83596
C         -1.74023        0.65655       -0.29515
C         -2.35726       -0.56600       -0.45170
C         -1.35914       -1.52868       -0.38907
C         -0.16606       -0.84869       -0.21359
N         -0.42347        0.46553       -0.12722
C          1.24328       -1.44945       -0.13378
N          2.30317       -0.40196       -0.11651
C          3.35814       -0.46535        0.91420
H         -3.41795       -0.72937       -0.59041
H         -2.22238        1.62647       -0.29091
H         -1.49696       -2.59676       -0.47300
H          1.40478       -2.06404       -1.04389
H          1.29107       -2.12835        0.73616
C          4.23460       -1.72195        0.87135
C          4.26363        0.77078        0.68748
C          2.70496       -0.45823        2.28681
H          4.77028       -1.82031       -0.09011
H          4.98646       -1.65877        1.69538
H          3.62202       -2.62879        1.05608
H          3.67483        1.70005        0.59386
H          5.01356        0.89114        1.50013
H          4.81922        0.67832       -0.27226
H          1.85950        0.18651        2.23746
H          2.24003       -1.41838        2.56891
H          3.43797       -0.20315        3.06230
Na         3.22109       -0.18571       -2.04558
C          6.02617        5.56751       -4.10340
C          5.70910        7.90471       -3.91669
O          5.09941        6.62414       -3.84064
C          7.11355        5.40937       -3.04167
C          4.65405        8.98552       -3.69951
H          5.43166        4.62868       -4.12426
H          6.47846        5.65827       -5.11816
H          6.51007        8.03774       -3.16617
H          6.10386        8.04890       -4.94272
H          5.06387        9.97716       -3.99610
H          4.36609        9.05848       -2.63250
H          3.73865        8.78916       -4.29704
H          6.66537        5.39902       -2.03478
H          7.86656        6.22194       -3.10671
H          7.64878        4.44485       -3.18951
C          1.01058        2.19057       -2.95479
C          1.38940        3.14699       -3.88620
C          2.05207        4.12645       -3.20554
C          2.05570        3.73421       -1.86161
N          1.38873        2.56985       -1.71537
C          2.75138        4.34617       -0.74732
N          2.86339        5.81759       -0.81373
C          3.50092        6.40049        0.39026
H          1.22167        3.11101       -4.96172
H          0.49373        1.27395       -3.19207
H          2.53993        4.99653       -3.61559
H          2.17737        4.02302        0.14505
H          3.75573        3.87457       -0.72609
C          4.95070        5.89059        0.54818
C          3.57709        7.92576        0.25066
C          2.72072        6.05181        1.66337
H          5.53344        6.15634       -0.34727
H          5.42238        6.36426        1.43490
H          5.00741        4.79758        0.71966
H          2.58059        8.40931        0.19804
H          4.12096        8.34893        1.12491
H          4.15929        8.18454       -0.65054
H          1.63247        6.27357        1.58520
H          2.86116        4.98779        1.83588
H          3.14504        6.54541        2.55988
