96
speciation1078.ct
Na         1.94345       -0.19732        1.18714
Mg         4.19955        2.53583       -2.94354
C         -0.96198       -1.16853        0.57576
C         -0.92331       -0.02070        2.63868
O         -0.21568       -0.84529        1.73549
C         -1.31028        0.03615       -0.30447
C         -0.04252        0.27758        3.84237
H         -0.32645       -1.84790       -0.03120
H         -1.87113       -1.75212        0.83833
H         -1.20119        0.95461        2.18905
H         -1.82822       -0.55494        3.00604
H          0.85389        0.85058        3.52228
H         -0.61032        0.88522        4.57905
H          0.28109       -0.66724        4.32737
H         -0.39031        0.60281       -0.54919
H         -1.77292       -0.31801       -1.24921
H         -2.04661        0.70273        0.18941
H          6.28383        3.95525       -3.90014
C          6.70519        4.25631       -1.79664
C          5.71245        4.07218       -2.95474
C          7.68089        3.08140       -1.64642
H          7.30014        5.17512       -1.98991
H          6.13252        4.41325       -0.86077
H          7.11570        2.14979       -1.45887
H          8.24750        2.94182       -2.58981
C          8.70620        3.32912       -0.52727
H          5.13120        5.01021       -3.02092
H          9.32850        4.21114       -0.76082
H          8.24800        3.53031        0.46176
H          9.35577        2.43584       -0.41321
C          5.25097       -0.24674        0.92185
C          6.33601        0.59896        0.96191
C          5.84862        1.85702        0.68727
C          4.51391        1.72744        0.42393
N          4.14912        0.46460        0.62696
C          3.57128        2.85080        0.20143
N          2.94453        2.86351       -1.15252
C          1.93623        3.98298       -1.23315
H          7.34556        0.34466        1.25666
H          5.24883       -1.28567        1.21568
H          6.36036        2.78485        0.73556
H          2.81614        2.75498        1.00482
H          4.14237        3.78340        0.36454
C          2.56144        5.37741       -0.96680
C          1.33667        4.01361       -2.63587
C          0.74500        3.78680       -0.25311
H          3.42064        5.55793       -1.63898
H          1.81187        6.17971       -1.14123
H          2.89230        5.50025        0.08440
H          0.89182        3.02759       -2.88514
H          0.54019        4.78395       -2.71837
H          2.11893        4.30701       -3.34714
H          0.24397        2.81558       -0.42849
H          1.03249        3.85532        0.81366
H         -0.01141        4.58848       -0.40053
Mg         2.73696        4.91163       -8.54698
C          6.18764        0.68272       -4.04125
C          4.18432       -0.30033       -3.26562
O          5.11027        0.76474       -3.08532
C          5.84016        0.77143       -5.54373
C          4.72480       -1.68066       -2.85891
H          6.89845        1.50288       -3.83505
H          6.78275       -0.23062       -3.86214
H          3.30604       -0.10567       -2.61425
H          3.79590       -0.36965       -4.30212
H          3.92442       -2.44600       -2.98043
H          5.05045       -1.66522       -1.79452
H          5.56770       -2.00551       -3.49848
H          5.42404        1.75770       -5.80702
H          6.78581        0.63635       -6.13213
H          5.16571       -0.03351       -5.90333
C          2.11682        1.68938       -4.87393
C          1.44356        1.92949       -6.04342
C          1.98061        3.06313       -6.58089
C          2.98343        3.47493       -5.71756
N          3.08330        2.62449       -4.66133
C          3.83142        4.70459       -5.89966
N          3.18138        5.66941       -6.80527
C          3.91168        6.92744       -7.07874
H          0.63255        1.33643       -6.45319
H          1.90132        0.87295       -4.20354
H          1.66166        3.53164       -7.50046
H          3.93632        5.17369       -4.90821
H          4.82357        4.38128       -6.27775
C          5.22926        6.64049       -7.82835
C          3.01299        7.78680       -7.98765
C          4.19794        7.72304       -5.78669
H          5.02507        6.06659       -8.75749
H          5.72884        7.59208       -8.10846
H          5.93638        6.06286       -7.20598
H          2.05715        8.03035       -7.47569
H          3.51662        8.74233       -8.25610
H          2.77500        7.24581       -8.92734
H          3.25169        7.93072       -5.24169
H          4.88854        7.17941       -5.11360
H          4.67745        8.69742       -6.03313
