83
speciation682.ct
Na        -4.66527       -0.13854        0.22470
Mg        -0.57727       -3.46032        3.60906
C         -1.76592       -5.97179        3.41743
C          0.40286       -6.07104        4.41835
O         -0.47327       -5.40178        3.51894
C         -2.52344       -6.07449        4.74115
C          0.74759       -7.51864        4.02570
H         -2.35032       -5.31235        2.74214
H         -1.73352       -6.95594        2.90523
H          1.36525       -5.51838        4.37998
H          0.05778       -6.02867        5.47287
H          0.37978       -8.21635        4.80969
H          1.85083       -7.64799        3.96886
H          0.32708       -7.81182        3.04477
H         -2.57413       -5.08676        5.22860
H         -2.04686       -6.80422        5.42534
H         -3.55810       -6.42219        4.54332
C         -5.19269       -1.77833        3.10867
C         -4.57146       -2.47950        4.12401
C         -3.22961       -2.48957        3.83118
C         -3.07692       -1.79007        2.64411
N         -4.27834       -1.35872        2.21928
C         -1.77823       -1.52402        1.92452
N         -0.99771       -2.76139        1.75678
C          0.31247       -2.60563        1.05640
H         -5.05360       -2.93531        4.98142
H         -6.24635       -1.58124        3.03554
H         -2.46136       -2.96205        4.41405
H         -2.01486       -1.05231        0.94975
H         -1.19215       -0.80024        2.50476
C          1.28104       -1.71580        1.86834
C          0.95745       -3.99831        0.92490
C          0.14646       -2.04039       -0.37329
H          1.41473       -2.13196        2.88889
H          2.27439       -1.67156        1.37467
H          0.91379       -0.67377        1.94941
H          0.30620       -4.68375        0.33850
H          1.94025       -3.93217        0.40477
H          1.14198       -4.44623        1.91897
H         -0.52739       -2.68711       -0.97737
H         -0.25246       -1.00733       -0.37412
H          1.13118       -2.00090       -0.89196
Na        -2.21106       -3.97146        0.46841
C          0.35086       -3.04737        6.25167
C         -0.80255       -1.12334        5.46972
O         -0.07035       -2.29741        5.12226
C         -0.74613       -3.39333        7.27114
C          0.11167       -0.01480        5.97770
H          0.73435       -3.98787        5.85712
H          1.23273       -2.58383        6.74081
H         -1.30207       -0.72039        4.58249
H         -1.63440       -1.31651        6.17569
H         -0.49717        0.88456        6.21178
H          0.85566        0.24565        5.19626
H          0.63599       -0.33035        6.90150
H         -1.66265       -3.74576        6.76196
H         -0.99227       -2.50946        7.89545
H         -0.38738       -4.19021        7.95342
C         -4.64569        0.78496       -3.01850
C         -5.00764        1.79455       -3.88789
C         -5.65562        2.74943       -3.13454
C         -5.66736        2.27609       -1.83728
N         -5.05219        1.08164       -1.76988
C         -6.27660        2.96709       -0.65882
N         -5.26732        3.18409        0.38575
C         -5.75763        3.86334        1.61618
H         -4.81196        1.83317       -4.95124
H         -4.10703       -0.11343       -3.28162
H         -6.06826        3.68426       -3.49135
H         -6.69574        3.92879       -1.01052
H         -7.08799        2.31110       -0.28811
C         -6.80164        2.99878        2.35707
C         -4.55441        4.06363        2.55714
C         -6.34910        5.25393        1.29788
H         -6.37528        2.00408        2.60786
H         -7.11389        3.49207        3.30372
H         -7.71896        2.85001        1.75402
H         -3.76443        4.66816        2.06180
H         -4.86327        4.59304        3.48650
H         -4.11423        3.08629        2.84978
H         -5.60238        5.87493        0.75806
H         -7.26888        5.17872        0.68357
H         -6.63505        5.78031        2.23495
