96
speciation1762.ct
Na         1.68724        1.38118       -1.39482
Mg         4.15700       -5.60664        2.12585
C          4.30001       -4.07805        4.58743
C          4.60842       -6.36589        5.13694
O          4.20178       -5.41834        4.14296
C          5.68809       -3.67714        5.15051
C          3.85242       -6.24096        6.48024
H          4.03885       -3.46088        3.72086
H          3.49619       -3.84276        5.31279
H          4.39900       -7.39071        4.77737
H          5.70302       -6.30277        5.30974
H          2.77318       -6.45719        6.34174
H          4.27220       -6.96172        7.21360
H          3.95849       -5.23939        6.94706
H          6.48212       -3.80757        4.39315
H          5.68651       -2.61118        5.45389
H          5.96542       -4.24228        6.05960
H          3.47178       -1.82135        2.14410
C          5.55865       -1.43295        2.48118
C          4.42352       -1.92320        1.58427
C          6.94752       -1.68041        1.88273
H          5.38720       -0.40122        2.80286
H          5.51575       -1.95903        3.41597
H          7.10808       -2.77839        1.80183
H          7.04227       -1.23992        0.86889
C          8.02041       -1.07001        2.78100
H          4.62758       -3.00183        1.50455
H          7.93148        0.03860        2.77168
H          7.91500       -1.42965        3.82738
H          9.02640       -1.34805        2.40688
C          5.95775       -2.26533       -2.26501
C          6.71589       -1.64067       -3.24041
C          6.35654       -0.30907       -3.23131
C          5.39209       -0.17834       -2.24978
N          5.15981       -1.36723       -1.66699
C          4.66042        1.09489       -1.85499
N          3.66257        0.85475       -0.77767
C          3.82989        1.64410        0.48418
H          7.44473       -2.11261       -3.88893
H          5.98063       -3.31990       -2.01680
H          6.74385        0.47724       -3.86752
H          4.12284        1.49811       -2.73908
H          5.41951        1.84538       -1.56235
C          3.67983        3.15742        0.29712
C          2.70422        1.16968        1.42294
C          5.21484        1.38798        1.06249
H          2.69768        3.41940       -0.14051
H          3.76339        3.65646        1.29412
H          4.48456        3.56731       -0.33919
H          2.66876        0.07238        1.52008
H          2.79721        1.61100        2.44370
H          1.70665        1.46728        1.02372
H          5.45711        0.34966        0.86413
H          6.01316        1.94187        0.54139
H          5.25949        1.68548        2.13785
Mg         3.83677       -1.12684       -0.41688
C          6.31023       -7.30348        2.20140
C          6.41250       -6.01553        0.21395
O          5.56703       -6.65530        1.17717
C          7.34189       -6.40796        2.89753
C          7.29835       -7.00443       -0.57718
H          5.57197       -7.61863        2.95237
H          6.76428       -8.25452        1.85381
H          5.78719       -5.50063       -0.53720
H          7.03640       -5.22227        0.67315
H          6.67372       -7.68867       -1.18921
H          7.97207       -6.44162       -1.25838
H          7.95417       -7.61344        0.07936
H          6.85849       -5.44945        3.13164
H          7.71071       -6.88200        3.82930
H          8.22151       -6.21264        2.24907
C          1.33395       -1.60216       -2.00704
C          0.47862       -2.57257       -2.41035
C          0.87728       -3.75978       -1.82353
C          1.98645       -3.43370       -1.04460
N          2.25253       -2.11055       -1.15691
C          2.91084       -4.34918       -0.26163
N          2.50372       -4.75583        1.11618
C          1.34147       -5.66386        1.35532
H         -0.37480       -2.44192       -3.06810
H          1.30429       -0.56556       -2.30053
H          0.41932       -4.71401       -1.97464
H          3.72390       -3.66132       -0.11299
H          3.53907       -5.08401       -0.80994
C          1.48577       -6.96219        0.54753
C          1.34947       -5.98806        2.85757
C         -0.05343       -5.03630        1.08602
H          2.46222       -7.44275        0.76322
H          0.67113       -7.67611        0.80399
H          1.42261       -6.74739       -0.53977
H          1.24191       -5.04887        3.44899
H          0.51408       -6.66660        3.13686
H          2.29308       -6.48545        3.13864
H         -0.20122       -4.08638        1.64102
H         -0.27779       -4.87240        0.03303
H         -0.85308       -5.74221        1.41433
