110
speciation2241.ct
Na         1.02506       -0.09564       -0.01498
Mg         4.05143        0.92600       -1.75012
C         -1.82444        0.58157       -1.13952
C         -1.79477        0.51166        1.16857
O         -1.29494       -0.09564       -0.01498
C         -1.28552       -0.03501       -2.42273
C         -1.18022       -0.10937        2.42382
H         -2.92830        0.44072       -1.15610
H         -1.58707        1.67212       -1.13263
H         -1.58541        1.60601        1.19415
H         -2.89209        0.33624        1.23248
H         -0.09866        0.12948        2.50011
H         -1.68420        0.30755        3.32496
H         -1.31826       -1.21079        2.42901
H         -1.38869       -1.13801       -2.37372
H         -1.86198        0.34659       -3.29409
H         -0.21690        0.22074       -2.57058
H          3.45464       -1.26724       -3.70519
C          3.64426        0.28168       -5.03557
C          3.20550       -0.19621       -3.67000
C          3.12045       -0.61983       -6.16724
H          3.30946        1.32297       -5.19086
H          4.74414        0.22875       -5.05814
H          3.44646       -1.67181       -5.98606
H          2.00653       -0.61987       -6.19253
C          3.70142       -0.12753       -7.49920
H          2.09318       -0.19597       -3.63480
H          3.36745        0.90887       -7.71472
H          4.81167       -0.11976       -7.44329
H          3.39816       -0.77521       -8.34768
C          4.45481        7.10568        2.12934
C          3.22502        7.65760        2.37690
C          2.40750        6.62675        2.86911
C          2.98445        5.51709        2.23209
N          4.44166        5.85751        2.65171
C          3.16227        2.39720        1.14537
N          3.39506       -0.09564       -0.01498
C          3.18832       -1.61474        0.13983
H          3.07384        8.71374        2.56304
H          4.49934        6.99230        1.00212
H          2.58689        6.73161        3.97229
H          3.23588        2.00377        2.18549
H          3.94349        2.80595        0.55137
C          2.11236       -2.10614        1.13724
C          2.75352       -2.03822       -1.23651
C          4.41227       -2.53653        0.47515
H          1.07740       -1.79699        0.96981
H          2.01006       -3.21394        1.00196
H          2.42252       -1.92914        2.18203
H          3.63704       -1.79165       -1.82427
H          2.57447       -3.12111       -1.36396
H          1.86478       -1.45927       -1.56486
H          5.04167       -2.86482       -0.32476
H          4.97146       -2.28374        1.37586
H          4.09061       -3.59374        0.57230
Na         4.98835        3.58037        2.28752
Mg         6.71171        1.88114       -3.20445
C          2.29482        3.38066       -1.74356
C          4.39360        3.62992       -2.79441
O          3.68168        3.03988       -1.70339
C          1.60285        2.61671       -2.84880
C          4.46381        5.17829       -2.91933
H          1.82642        3.06147       -0.79618
H          2.08836        4.47494       -1.75182
H          5.44306        3.30969       -2.70757
H          3.99683        3.23383       -3.73815
H          5.14253        5.67404       -2.18872
H          4.89902        5.39373       -3.92248
H          3.47782        5.68252       -2.90832
H          1.99942        1.62696       -2.70416
H          0.50599        2.55860       -2.73739
H          1.85245        2.96770       -3.87199
H          7.27958        2.24081       -5.72991
C          8.84351        3.26801       -4.66218
C          7.39170        2.89437       -4.83925
C          9.01696        4.16092       -3.43682
H          9.44360        2.34051       -4.53987
H          9.18441        3.80360       -5.57427
H          8.39510        5.07753       -3.54171
H          8.69859        3.61818       -2.51849
C         10.47453        4.57135       -3.31188
H          6.77062        3.80352       -4.98666
H         11.11750        3.67108       -3.20747
H         10.77623        5.13274       -4.22252
H         10.60462        5.22113       -2.42345
C          5.36844        0.45788        2.95761
C          6.16105       -0.62301        2.79063
C          6.85758       -0.38811        1.63927
C          6.33058        0.77419        1.01066
N          5.53503        1.30322        1.92333
C          6.56517        1.54239       -0.32932
N          6.04839        0.89275       -1.60971
C          6.99676       -0.24374       -2.08267
H          6.28415       -1.47015        3.45450
H          4.77233        0.65006        3.83749
H          7.64981       -1.08161        1.39846
H          7.61423        1.87871       -0.39561
H          6.03480        2.51260       -0.25161
C          6.82800       -1.48908       -1.32671
C          6.74548       -0.75528       -3.52773
C          8.48361        0.14306       -1.99736
H          5.79702       -1.65156       -1.52145
H          7.51425       -2.34663       -1.52414
H          6.98666       -1.31588       -0.36417
H          6.87679        0.01917       -4.28818
H          7.47444       -1.58099       -3.75651
H          5.75738       -1.25773       -3.62579
H          8.64301        1.05238       -2.60246
H          8.81085        0.28605       -0.94804
H          9.13106       -0.68245       -2.36784
