110
speciation2044.ct
Na         1.17560       -0.15233        0.15601
Mg         1.38258        3.79954        4.72203
C          3.92861       -1.49593       -0.20930
C          3.99648       -0.23264        1.72966
O          3.32501       -0.41980        0.49290
C          3.51812       -2.85221        0.36291
C          3.37626        0.87955        2.52863
H          3.63214       -1.42363       -1.26224
H          5.03895       -1.40559       -0.26188
H          3.94719       -1.13486        2.37117
H          5.05359        0.06280        1.54279
H          2.35196        0.56661        2.80896
H          3.95712        1.04624        3.45850
H          3.39362        1.81700        1.94175
H          2.42571       -2.86644        0.50669
H          3.81454       -3.66996       -0.32405
H          4.00619       -3.04113        1.34058
H          2.43048        2.62762        6.77401
C          3.23185        4.63165        6.90346
C          2.84148        3.40050        6.09096
C          3.80057        5.75569        6.02964
H          2.34340        5.00347        7.45790
H          4.00385        4.33071        7.64508
H          4.11177        6.59176        6.69300
H          4.69850        5.39039        5.48574
C          2.77904        6.29428        5.02880
H          3.72669        2.98164        5.56671
H          2.46862        5.50340        4.31841
H          1.88569        6.68421        5.56228
H          3.23367        7.11903        4.44218
C         -0.85161        5.26341        3.42524
C         -1.88435        5.11063        2.52528
C         -1.69700        3.88975        1.92301
C         -0.51521        3.37783        2.42854
N         -0.04057        4.18881        3.38665
C          0.20054        2.13431        1.99844
N          0.08712        1.84407        0.55322
C          0.66669        2.86899       -0.40394
H         -2.69390        5.80160        2.33405
H         -0.72422        6.09888        4.09908
H         -2.32414        3.45827        1.16515
H         -0.15247        1.25778        2.57271
H          1.24297        2.29014        2.28127
C          2.15968        3.14230       -0.18045
C          0.52891        2.30810       -1.80653
C         -0.06606        4.23801       -0.41409
H          2.73701        2.19981       -0.25540
H          2.53633        3.83682       -0.96657
H          2.33780        3.62913        0.79856
H         -0.49093        2.00236       -1.86397
H          0.71764        3.07020       -2.59686
H          1.16876        1.42262       -1.98520
H         -1.14803        4.10964       -0.59696
H          0.12781        4.82751        0.50088
H          0.30751        4.89707       -1.22421
Na        -2.94250        3.86289       -1.85361
Mg        -1.96052        1.62885        0.35347
C         -1.00748       -2.34657        0.38185
C          0.27968       -2.71316       -1.52243
O         -0.10631       -1.76789       -0.54188
C         -0.33979       -3.34204        1.33663
C          0.96485       -2.01872       -2.67911
H         -1.42931       -1.51096        0.94188
H         -1.88737       -2.81819       -0.11854
H          0.96343       -3.47480       -1.09597
H         -0.61264       -3.21911       -1.95968
H          1.87343       -1.51419       -2.33550
H          1.24328       -2.77387       -3.44411
H          0.29881       -1.25386       -3.12401
H          0.54868       -2.87744        1.80620
H         -1.04697       -3.64207        2.13822
H         -0.03978       -4.26470        0.79456
H         -2.22898        1.33262        3.27119
C         -2.88316       -0.66666        2.88189
C         -2.79877        0.81737        2.47424
C         -3.58866       -0.90618        4.23438
H         -3.45862       -1.21292        2.10318
H         -1.85615       -1.07280        2.96987
H         -3.06719       -0.36671        5.05556
H         -4.63790       -0.54050        4.18327
C         -3.60878       -2.40156        4.57040
H         -3.81402        1.21776        2.62524
H         -4.09265       -2.97742        3.75238
H         -2.57209       -2.77701        4.70841
H         -4.17608       -2.58299        5.50863
C         -2.71950        4.77753       -4.71795
C         -1.87631        4.20079       -5.65323
C         -1.51316        2.96863       -5.12531
C         -2.22005        2.84459       -3.89426
N         -2.73018        4.02673       -3.63936
C         -2.54766        1.60063       -2.89244
N         -3.12002        1.87918       -1.43472
C         -4.62760        2.05717       -1.10969
H         -1.57582        4.70879       -6.58271
H         -3.17833        5.76828       -4.77302
H         -0.83108        2.28606       -5.64496
H         -3.31600        1.03059       -3.43902
H         -1.78573        0.80294       -2.89812
C         -5.54508        1.00839       -1.77802
C         -4.93657        1.90089        0.42088
C         -5.10123        3.46598       -1.39772
H         -5.57249        0.03972       -1.23090
H         -6.58972        1.39618       -1.74460
H         -5.32587        0.80767       -2.84161
H         -4.35861        2.61238        1.04285
H         -6.00254        2.18227        0.61120
H         -4.86886        0.86574        0.79389
H         -4.53119        4.17544       -0.73831
H         -4.98730        3.68207       -2.47621
H         -6.14212        3.65664       -1.10807
