110
speciation2597.ct
Na         1.31849        1.54788       -0.02573
Mg         3.20350       -0.05262       -1.45515
C          2.20679        2.07845       -2.94674
C          2.71057        0.28505       -4.40752
O          2.98142        0.91252       -3.15734
C          0.70844        1.92441       -3.20330
C          3.14324        1.15884       -5.59808
H          2.30550        2.29276       -1.88538
H          2.63585        2.96139       -3.47132
H          3.28441       -0.65127       -4.45614
H          1.65335       -0.02839       -4.50519
H          4.22568        1.39171       -5.54547
H          2.94217        0.62799       -6.55176
H          2.58257        2.11696       -5.62915
H          0.35303        1.01230       -2.71502
H          0.16108        2.79587       -2.80081
H          0.48748        1.82543       -4.28275
H          5.71902       -0.81840       -1.13286
C          5.82405       -1.18878       -3.23977
C          5.01962       -1.14129       -1.93119
C          6.42454        0.16589       -3.63326
H          6.65859       -1.91207       -3.10455
H          5.18811       -1.57703       -4.05782
H          5.61924        0.91353       -3.76844
H          7.10601        0.52558       -2.83210
C          7.21973        0.04316       -4.93654
H          4.68906       -2.17920       -1.71759
H          8.05951       -0.67477       -4.81273
H          6.56359       -0.31142       -5.76063
H          7.64071        1.03030       -5.22176
C         -1.51615        0.12207       -1.14768
C         -2.03328       -1.16752       -1.13393
C         -1.07975       -1.96794       -0.55703
C         -0.02006       -1.13584       -0.26950
N         -0.28621        0.13894       -0.58366
C          1.27071       -1.56031        0.32406
N          2.18937       -0.40302        0.38768
C          3.06091       -0.40008        1.59989
H         -2.99900       -1.48896       -1.50933
H         -2.01857        0.99157       -1.54386
H         -1.14505       -3.03588       -0.37487
H          1.73089       -2.36515       -0.27332
H          0.99497       -1.98136        1.30868
C          4.03935       -1.58416        1.53986
C          3.80562        0.93652        1.60290
C          2.29915       -0.48247        2.96424
H          4.60041       -1.57694        0.59907
H          4.76516       -1.54581        2.37897
H          3.49210       -2.54945        1.60149
H          3.06827        1.76006        1.73034
H          4.51984        0.99729        2.45087
H          4.34468        1.09536        0.64755
H          1.59605        0.36462        3.10245
H          1.74980       -1.42829        3.13801
H          3.03576       -0.45057        3.79920
Na        -0.09490        7.50863        1.49423
Mg        -1.59794        5.64230       -0.97532
C          0.51785        5.86757       -2.40521
C         -1.29935        5.35348       -3.84190
O         -0.68362        5.14038       -2.57492
C          0.42012        7.37520       -2.65568
C         -0.51812        4.74541       -5.00476
H          0.75178        5.77923       -1.34119
H          1.36272        5.39090       -2.94210
H         -2.28413        4.84126       -3.84395
H         -1.48055        6.42485       -4.04737
H         -0.50523        3.64875       -4.91731
H         -1.02724        4.99233       -5.95885
H          0.51815        5.13528       -5.05281
H         -0.44005        7.79885       -2.09283
H          1.35355        7.86327       -2.30739
H          0.31608        7.59600       -3.73672
H         -3.36724        6.64226       -2.99284
C         -4.71918        7.25098       -1.51211
C         -3.61792        6.28007       -1.98189
C         -4.21423        8.69432       -1.40187
H         -5.54768        7.22658       -2.25866
H         -5.13701        6.91724       -0.54000
H         -3.39804        8.74057       -0.65179
H         -3.82023        9.03466       -2.38538
C         -5.33886        9.64287       -0.97920
H         -4.09924        5.28574       -2.10111
H         -6.14976        9.65452       -1.74015
H         -5.76527        9.32954       -0.00277
H         -4.94161       10.67515       -0.87670
C          3.43873        4.06513       -0.37842
C          3.64129        5.39109       -0.04763
C          2.52084        5.80135        0.64572
C          1.67223        4.70582        0.69737
N          2.23287        3.63136        0.08158
C          0.36396        4.58848        1.39786
N         -0.74311        5.52288        1.00384
C         -1.95435        5.27150        1.82631
H          4.52023        5.98610       -0.26860
H          4.15079        3.44634       -0.91080
H          2.36006        6.77929        1.07956
H          0.06391        3.53955        1.24757
H          0.63906        4.75039        2.45489
C         -1.70865        5.44596        3.35709
C         -2.99584        6.30180        1.43521
C         -2.49169        3.84815        1.54715
H         -1.33096        6.46688        3.57571
H         -2.67162        5.30657        3.90497
H         -1.00957        4.70365        3.77889
H         -3.15827        6.21818        0.36415
H         -3.95895        6.12351        1.95707
H         -2.64300        7.33208        1.65262
H         -2.55801        3.67615        0.44980
H         -1.83794        3.06238        1.98417
H         -3.48675        3.70138        2.00716
