96
speciation1107.ct
Na         0.91849        2.27791       -0.06201
Mg         0.46582        0.88303       -5.50095
C         -0.71755        0.04312       -0.42305
C         -2.49681        1.54272        0.06054
O         -1.08453        1.23425        0.24194
C         -1.18828        0.01890       -1.89658
C         -3.46153        0.50883        0.71021
H         -0.77114       -0.85712        0.23793
H          0.37276        0.08266       -0.52121
H         -2.78856        2.51426        0.49683
H         -2.77305        1.69351       -1.00897
H         -3.40360        0.58084        1.81869
H         -4.49268        0.69424        0.37478
H         -3.20661       -0.51962        0.40256
H         -0.71898        0.88039       -2.39538
H         -0.83438       -0.86752       -2.37024
H         -2.26643        0.01689       -2.10349
H          2.34170       -0.54641       -3.76996
C          1.15147       -2.26817       -3.23597
C          1.25126       -0.71673       -3.64898
C         -0.18715       -3.10033       -3.38360
H          1.82239       -2.74968       -3.97129
H          1.62236       -2.47007       -2.23840
H         -0.69030       -2.73051       -4.29454
H          0.13231       -4.14464       -3.60560
C         -1.24659       -3.36922       -2.25789
H          1.15680       -0.15301       -2.70346
H         -2.21046       -3.61829       -2.76412
H         -1.50057       -2.58764       -1.52307
H         -1.00404       -4.27441       -1.65696
C          2.70229       -0.15217        0.81125
C          3.44776       -0.36188        1.95118
C          3.35484        0.80327        2.70407
C          2.54496        1.67733        1.99019
N          2.16359        1.07662        0.84928
C          2.11816        3.09199        2.40227
N          1.40882        3.85597        1.32606
C          0.33600        4.80022        1.73941
H          3.98602       -1.26224        2.20015
H          2.52203       -0.87718        0.02704
H          3.81573        0.96791        3.66484
H          3.03093        3.66352        2.66413
H          1.49839        2.99029        3.32078
C          0.78734        5.74220        2.87210
C         -0.05048        5.69143        0.54533
C         -0.88762        3.99379        2.14522
H          1.70786        6.28943        2.57717
H         -0.00679        6.49448        3.07972
H          0.98105        5.19947        3.82034
H         -0.51489        5.11255       -0.26825
H         -0.82613        6.43256        0.85033
H          0.82725        6.26297        0.16666
H         -1.08036        3.33270        1.30939
H         -0.71339        3.37076        3.04121
H         -1.77975        4.63834        2.30506
Mg         2.71992        5.21293        0.82102
C         -0.88417       -1.00887       -7.73674
C          1.00584        0.10320       -8.65639
O          0.12033       -0.00369       -7.51135
C         -0.35324       -2.42671       -8.09722
C          0.32391        0.21685      -10.07957
H         -1.49155       -1.10949       -6.81770
H         -1.60712       -0.68267       -8.51708
H          1.61671        1.00652       -8.54723
H          1.69610       -0.76765       -8.68629
H         -0.30353        1.12063      -10.18299
H          1.11160        0.25688      -10.86518
H         -0.30150       -0.66831      -10.36747
H          0.32355       -2.80270       -7.30859
H         -1.20319       -3.13549       -8.20244
H          0.18177       -2.45515       -9.06773
C          0.25700        4.11521       -5.82181
C          0.23704        5.40304       -5.30085
C          0.39666        5.26587       -3.96600
C          0.52149        3.93711       -3.70590
N          0.40759        3.15223       -4.85287
C          0.70990        3.50551       -2.28895
N          1.82842        2.65363       -2.09187
C          3.22474        3.21123       -2.27973
H          0.12672        6.37073       -5.80164
H          0.12696        3.92129       -6.86676
H          0.44117        6.09924       -3.22318
H         -0.21899        2.98618       -1.97919
H          0.83664        4.39515       -1.66393
C          3.59868        4.30318       -1.25632
C          4.21259        2.06551       -2.11915
C          3.46679        3.83083       -3.69573
H          3.56573        3.86315       -0.23411
H          4.64449        4.65657       -1.41460
H          2.95008        5.19653       -1.33522
H          4.00769        1.26520       -2.87376
H          5.25719        2.40162       -2.24833
H          4.12074        1.62558       -1.10357
H          3.19544        3.11317       -4.49870
H          2.91852        4.77986       -3.83818
H          4.53516        4.10847       -3.83113
