53
speciation825.ct
Na         3.93781        4.79826        2.73238
C          6.30270        4.78986        0.72743
C          6.79458        4.23791       -0.43632
C          5.84270        3.34137       -0.87766
C          4.80871        3.38783        0.03996
N          5.09364        4.27382        1.01598
C          3.55661        2.55508        0.00431
N          2.78445        2.81182       -1.22382
C          1.54132        2.02248       -1.38873
H          7.74222        4.46210       -0.90429
H          6.80729        5.52934        1.33726
H          5.90489        2.72437       -1.76242
H          3.86964        1.49251        0.05368
H          2.95806        2.80798        0.90072
C          0.56444        2.24835       -0.21350
C          0.86394        2.51207       -2.67993
C          1.84091        0.51842       -1.53971
H          0.35015        3.32923       -0.08969
H         -0.39540        1.71853       -0.39515
H          0.97230        1.85792        0.74090
H          1.53112        2.35883       -3.55506
H         -0.08777        1.96709       -2.86296
H          0.63231        3.59361       -2.60797
H          2.55010        0.34677       -2.37728
H          2.27117        0.09148       -0.61159
H          0.90370       -0.04071       -1.75407
Na         2.03201        5.05920       -1.22043
Mg         3.91263        2.46582       -2.77765
C          5.44766        7.84903       -0.56603
C          5.70487        7.27765       -1.79336
C          4.52067        7.28218       -2.50783
C          3.57660        7.83751       -1.74440
N          4.09595        8.22176       -0.48955
C          2.14560        8.04210       -2.14509
N          1.27957        7.30658       -1.21703
C         -0.17736        7.37140       -1.47285
H          6.66172        6.89935       -2.12598
H          6.17152        7.99203        0.22487
H          4.38198        6.90550       -3.51276
H          2.01028        7.66988       -3.18159
H          1.93348        9.12900       -2.10858
C         -0.54400        6.78494       -2.85240
C         -0.86163        6.52469       -0.38733
C         -0.70295        8.81756       -1.36423
H         -0.16025        5.74988       -2.94979
H         -1.64805        6.76093       -2.98173
H         -0.13337        7.39630       -3.68111
H         -0.61997        6.91762        0.62405
H         -1.96635        6.53062       -0.51171
H         -0.51244        5.47351       -0.44214
H         -0.44865        9.24992       -0.37286
H         -0.27733        9.46592       -2.15681
H         -1.80824        8.83771       -1.48332
