110
speciation2595.ct
Na         7.22619       -0.19268       -0.48128
Mg         1.53288       -1.03865       -1.89372
C          1.04746        0.96354        0.27938
C         -0.60630       -0.68251        0.31224
O          0.33163        0.01998       -0.52144
C          1.71123        0.41004        1.56218
C         -1.82405        0.17438        0.75151
H          1.81402        1.40532       -0.35886
H          0.40182        1.82907        0.54224
H         -0.94340       -1.57974       -0.18071
H         -0.14588       -1.15546        1.19138
H         -2.45505        0.47986       -0.10756
H         -2.45472       -0.40873        1.45612
H         -1.53012        1.09547        1.29406
H          2.33289       -0.47670        1.31894
H          2.33479        1.19298        2.03975
H          0.97659        0.13227        2.34781
H          3.46261       -0.71493       -3.87942
C          4.56380        1.01224       -3.38963
C          3.23276        0.17397       -3.25688
C          4.52111        2.39675       -2.72785
H          5.44453        0.45312       -3.00439
H          4.76597        1.19795       -4.47468
H          5.41415        3.00793       -2.99079
H          3.62243        2.93665       -3.09301
C          4.50282        2.24087       -1.21950
H          2.52282        0.80890       -3.81607
H          3.77995        1.46198       -0.95123
H          5.49955        1.90728       -0.86229
H          4.23305        3.20039       -0.73420
C          1.72185       -3.38984       -0.08074
C          2.46045       -4.31199        0.61013
C          3.75802       -3.93408        0.47636
C          3.77026       -2.76160       -0.26676
N          2.50390       -2.46674       -0.69533
C          5.02938       -1.98579       -0.58462
N          5.59826       -1.15315        0.51424
C          6.09403       -1.74033        1.79201
H          2.09811       -5.16756        1.16569
H          0.64993       -3.42378       -0.11511
H          4.57771       -4.46731        0.92111
H          4.77658       -1.28222       -1.39920
H          5.79823       -2.67555       -0.99229
C          7.00584       -2.96778        1.55065
C          6.97472       -0.69323        2.51117
C          4.92168       -2.00273        2.77323
H          7.89443       -2.66639        0.95487
H          7.36648       -3.38635        2.51745
H          6.53004       -3.78267        0.99379
H          6.40509        0.23485        2.72948
H          7.33743       -1.10081        3.48565
H          7.86873       -0.42738        1.91096
H          4.35169       -1.06161        2.93232
H          4.18898       -2.74545        2.46885
H          5.29522       -2.34060        3.76350
Na         4.38254        0.49611        1.04318
Mg         2.08609       -3.25182       -4.17327
C          3.74455       -2.94248       -6.54938
C          5.22906       -3.22459       -4.69591
O          3.88582       -2.92722       -5.13086
C          4.37332       -4.14303       -7.28960
C          6.28745       -2.17946       -5.14321
H          2.65945       -2.98644       -6.75712
H          4.11325       -1.98586       -6.98119
H          5.26318       -3.26345       -3.59127
H          5.55300       -4.23226       -5.03337
H          7.30750       -2.51024       -4.83797
H          6.10240       -1.19145       -4.67868
H          6.32631       -2.04741       -6.24553
H          3.99783       -5.09886       -6.87037
H          5.48561       -4.12933       -7.24605
H          4.09812       -4.09658       -8.36435
H          3.05662       -5.76102       -4.64602
C          1.35288       -6.51580       -3.56249
C          2.40887       -5.42166       -3.80937
C          0.46248       -6.80370       -4.78218
H          1.88045       -7.46657       -3.30644
H          0.72083       -6.23506       -2.69305
H         -0.08648       -5.88649       -5.06879
H          1.09251       -7.13332       -5.63877
C         -0.55242       -7.91570       -4.48220
H          3.04833       -5.39016       -2.90178
H         -0.04024       -8.86584       -4.21426
H         -1.21879       -7.62206       -3.64018
H         -1.18695       -8.10723       -5.37490
C         -3.61706       -1.67142       -1.33817
C         -3.78073       -3.00398       -1.02995
C         -2.66692       -3.67619       -1.50225
C         -1.84412       -2.79857       -2.08491
N         -2.37161       -1.50173       -1.97569
C         -0.50967       -3.20937       -2.76874
N          0.32815       -2.16565       -3.44120
C         -0.36403       -1.62742       -4.70358
H         -4.64730       -3.42667       -0.51970
H         -4.31649       -0.88048       -1.09758
H         -2.49589       -4.73837       -1.42158
H         -0.72685       -4.03570       -3.46299
H          0.12003       -3.72229       -2.04673
C         -1.65674       -0.79709       -4.47860
C          0.58329       -0.68716       -5.44937
C         -0.76658       -2.76723       -5.68759
H         -1.50133        0.01927       -3.74193
H         -2.00224       -0.31888       -5.42269
H         -2.52384       -1.44306       -4.24123
H          1.51970       -1.19711       -5.73403
H          0.10096       -0.31055       -6.38311
H          0.78413        0.19864       -4.82712
H         -1.23632       -2.35126       -6.60662
H         -1.55608       -3.42992       -5.27106
H          0.10671       -3.38165       -5.98026
