70
speciation1073.ct
Na         1.50226        1.73997        0.11717
Mg         3.14205       -0.30980       -1.89931
C          2.82157        3.99367        1.59509
C          1.15202        4.65265        0.01277
O          2.14090        3.70485        0.37963
C          1.94243        4.31221        2.80433
C          1.77399        5.95547       -0.49259
H          3.39549        3.09427        1.87575
H          3.58491        4.78503        1.42901
H          0.56328        4.22787       -0.82101
H          0.41266        4.83854        0.81993
H          2.43520        5.74740       -1.36051
H          0.97164        6.65416       -0.81184
H          2.36401        6.45008        0.30631
H          1.19015        3.51044        2.95331
H          2.58572        4.37517        3.70809
H          1.44367        5.29642        2.69239
H          4.77857       -1.89175       -3.43500
C          3.54475       -3.41682       -2.57729
C          4.26835       -2.07327       -2.46978
C          2.51086       -3.39198       -3.70741
H          4.29988       -4.20540       -2.80195
H          3.05975       -3.66175       -1.60945
H          1.74733       -2.61503       -3.49379
H          3.01520       -3.14463       -4.66827
C          1.82274       -4.74707       -3.86459
H          5.08142       -2.16262       -1.72150
H          2.56645       -5.53528       -4.11304
H          1.29563       -5.02574       -2.92805
H          1.08071       -4.69373       -4.68950
C         -1.58245        1.05337        0.01094
C         -2.33563       -0.10284       -0.06031
C         -1.44119       -1.15686       -0.11033
C         -0.18261       -0.58884       -0.06936
N         -0.27605        0.74238        0.01340
C          1.13087       -1.30714       -0.08731
N          2.24893       -0.33428       -0.09940
C          3.18811       -0.40180        1.04680
H         -3.41449       -0.16908       -0.07258
H         -1.96568        2.06315        0.06973
H         -1.68170       -2.20932       -0.16756
H          1.19456       -1.92982       -1.00260
H          1.14041       -1.97878        0.79152
C          3.81138       -1.80262        1.26221
C          4.33147        0.57145        0.73381
C          2.46679        0.03361        2.34337
H          4.36019       -2.13751        0.36670
H          4.53531       -1.76625        2.10625
H          3.06599       -2.57834        1.52201
H          3.93476        1.57022        0.48945
H          5.03860        0.65126        1.58718
H          4.89080        0.23096       -0.16351
H          2.00779        1.03617        2.23247
H          1.66044       -0.67996        2.61569
H          3.17865        0.07416        3.19553
C          2.75781        2.30600       -2.72434
C          3.59357        0.83197       -4.38684
O          3.59082        1.18569       -3.01313
C          1.30709        2.22360       -3.23036
C          4.31326        1.86508       -5.25559
H          2.72367        2.39315       -1.62845
H          3.23350        3.24956       -3.06598
H          4.16334       -0.10349       -4.49611
H          2.57824        0.60661       -4.76980
H          5.35724        1.99833       -4.89923
H          4.33410        1.50937       -6.30661
H          3.79278        2.84512       -5.23847
H          0.82144        1.29167       -2.87548
H          0.72922        3.09320       -2.85387
H          1.25629        2.28311       -4.33804
