96
speciation1505.ct
Na         1.78968       -0.34582        0.59419
Mg         2.91918        1.36580       -1.92356
C          3.21668       -0.54123       -4.28201
C          1.04117       -0.64960       -3.39304
O          2.42320       -0.33068       -3.10589
C          2.68663        0.16301       -5.55527
C          0.82558       -2.05544       -4.03325
H          4.25273       -0.21539       -4.07922
H          3.32612       -1.63372       -4.48482
H          0.45546       -0.66014       -2.45912
H          0.55786        0.12900       -4.01242
H          1.35098       -2.80739       -3.44713
H         -0.25548       -2.29785       -4.11266
H          1.25120       -2.20409       -5.04178
H          2.62314        1.24186       -5.38858
H          3.34813       -0.03089       -6.41994
H          1.67773       -0.18197       -5.86693
H          2.61451        2.91495       -4.13490
C          2.19650        4.40916       -2.68683
C          2.13752        2.96185       -3.14947
C          1.69804        5.36638       -3.76497
H          1.58770        4.53855       -1.78084
H          3.22628        4.68883       -2.45484
H          2.26081        5.20348       -4.71163
H          0.61846        5.18259       -3.95115
C          1.92727        6.80527       -3.31637
H          1.07821        2.69358       -3.31942
H          1.39215        6.99891       -2.36318
H          3.01524        6.98241       -3.16050
H          1.56463        7.50540       -4.09484
C         -2.30905       -0.67687        0.46378
C         -3.04137        0.45660        0.61532
C         -2.20240        1.52640        0.29691
C         -0.97359        0.95988       -0.07769
N         -1.07843       -0.36000        0.07355
C          0.23524        1.71649       -0.68092
N          1.61864        1.54405       -0.12505
C          1.90398        2.39592        1.08616
H         -4.10179        0.47361        0.88031
H         -2.63144       -1.71722        0.59351
H         -2.48270        2.53695        0.25775
H         -0.02101        2.77958       -0.79838
H          0.28676        1.34045       -1.70884
C          0.91616        2.07697        2.23701
C          3.32768        2.09359        1.58683
C          1.84467        3.91485        0.81463
H          0.93115        0.99784        2.49727
H          1.17736        2.65277        3.15357
H         -0.11921        2.37235        1.97563
H          4.07581        2.39030        0.82446
H          3.54970        2.66814        2.51659
H          3.45996        1.02013        1.81280
H          2.62031        4.20585        0.08242
H          0.84270        4.25276        0.48656
H          2.06151        4.48158        1.74785
Mg        -0.14050       -1.78995       -0.15143
C          6.00253        2.13331       -2.46573
C          5.82613        0.54754       -0.82135
O          5.07606        1.56896       -1.51454
C          5.42910        3.27627       -3.23090
C          6.86275        1.09786        0.20753
H          6.85308        2.63103       -1.95452
H          6.39484        1.38605       -3.19055
H          5.14221       -0.13206       -0.28395
H          6.37902       -0.10544       -1.54286
H          6.36111        1.55506        1.08161
H          7.52009        0.27593        0.56379
H          7.57319        1.84802       -0.19563
H          5.14001        4.04360       -2.49602
H          6.18293        3.73157       -3.90527
H          4.63312        2.87655       -3.85680
C         -1.12062       -3.98729       -2.11930
C         -0.31539       -5.02452       -2.58937
C          0.93128       -4.83749       -2.02698
C          0.81035       -3.69590       -1.29973
N         -0.40649       -3.21038       -1.28178
C          1.84341       -2.77857       -0.73905
N          1.59001       -2.35776        0.62887
C          2.54134       -2.96816        1.60986
H         -0.58133       -5.78641       -3.29989
H         -2.14161       -3.79591       -2.42019
H          1.83951       -5.39817       -2.19162
H          2.84536       -2.82249       -1.16628
H          1.62269       -1.84285       -1.24330
C          3.94399       -3.14356        0.98116
C          2.72635       -2.06502        2.83297
C          1.91722       -4.30410        2.02671
H          4.27555       -2.16238        0.56496
H          4.70113       -3.49054        1.70214
H          3.95564       -3.90076        0.16689
H          1.78409       -1.85828        3.36759
H          3.42795       -2.56700        3.54191
H          3.19949       -1.10421        2.54543
H          0.96210       -4.11311        2.56803
H          1.68090       -4.91858        1.13623
H          2.60447       -4.86023        2.69523
