83
speciation468.ct
Na         1.15186       -0.07333        0.45894
Mg         0.68702        7.36086       -2.01102
C         -1.48120       -0.26898        2.20027
C          0.23623       -1.49366        3.13662
O         -0.34897       -1.06797        1.92202
C         -2.11268        0.20859        0.90191
C          1.46471       -2.34373        2.84820
H         -2.25110       -0.88000        2.72604
H         -1.21414        0.61987        2.81590
H          0.53649       -0.63125        3.77333
H         -0.47993       -2.14446        3.68892
H          2.24324       -1.73797        2.34114
H          1.87871       -2.73031        3.80547
H          1.19293       -3.20602        2.20425
H         -2.37763       -0.65985        0.26213
H         -3.03911        0.77875        1.12997
H         -1.40938        0.86987        0.35447
C          3.08844        3.86339        2.30890
C          2.45234        2.81749        2.93798
C          2.62303        1.70674        2.13309
C          3.36696        2.12210        1.04014
N          3.63645        3.43158        1.16501
C          3.81185        1.31125       -0.15293
N          2.68504        0.94275       -1.03566
C          3.04164        0.13355       -2.22692
H          1.89358        2.87848        3.86241
H          3.10625        4.89508        2.63780
H          2.22286        0.72313        2.32861
H          4.33149        0.41713        0.24582
H          4.53184        1.93311       -0.71815
C          3.70930       -1.20695       -1.84365
C          1.73932       -0.17588       -2.98030
C          3.97731        0.92081       -3.17284
H          3.04786       -1.79908       -1.17661
H          3.91442       -1.80814       -2.75690
H          4.68613       -1.05541       -1.34160
H          1.23456        0.76485       -3.28927
H          1.94343       -0.77909       -3.89271
H          1.04349       -0.74949       -2.33111
H          3.51439        1.88923       -3.46163
H          4.96190        1.12343       -2.70520
H          4.17837        0.33785       -4.09792
Na         4.54545        4.83475       -0.51479
C         -1.82419        8.51372       -2.54665
C         -1.88983        6.71809       -1.01319
O         -1.24734        7.28429       -2.13747
C         -1.74513        9.63834       -1.50521
C         -1.20302        5.40928       -0.64869
H         -1.26550        8.84969       -3.44552
H         -2.87516        8.36022       -2.87508
H         -1.83498        7.37277       -0.11984
H         -2.94837        6.48273       -1.26495
H         -0.15224        5.60429       -0.34486
H         -1.73668        4.93082        0.20037
H         -1.20950        4.71402       -1.51443
H         -0.70051        9.80038       -1.18882
H         -2.12065       10.58247       -1.95084
H         -2.37398        9.42447       -0.61726
C          6.74388        6.46179       -2.51486
C          6.81919        7.21539       -3.67004
C          5.51905        7.44442       -4.07940
C          4.70665        6.83692       -3.13884
N          5.45445        6.23792       -2.19459
C          3.20588        6.83957       -3.11894
N          2.67124        7.43940       -1.88130
C          3.02882        8.87063       -1.60843
H          7.72067        7.54403       -4.16786
H          7.58398        6.07701       -1.95561
H          5.20247        8.00415       -4.95095
H          2.80256        7.35871       -4.01108
H          2.86106        5.78445       -3.17416
C          2.56277        9.79190       -2.75712
C          2.31357        9.28255       -0.31126
C          4.53608        9.12788       -1.33635
H          1.47334        9.67647       -2.93514
H          2.77712       10.85636       -2.52208
H          3.10400        9.55936       -3.69815
H          2.67324        8.66166        0.53731
H          2.51890       10.34971       -0.07089
H          1.22440        9.14420       -0.40130
H          4.93282        8.43506       -0.56438
H          5.16304        9.08614       -2.23901
H          4.70225       10.16945       -0.98046
