96
speciation1104.ct
Na         1.30306        1.44660        0.07148
Mg         3.21343        6.91897        0.98765
C          0.27259        3.16633        2.59194
C          0.68351        0.96764        3.17079
O          0.98823        2.00584        2.23158
C          0.35757        4.12598        1.45932
C          1.25592        1.26018        4.57526
H         -0.80360        2.99103        2.84255
H          0.78834        3.66131        3.44777
H         -0.41523        0.76567        3.25184
H          1.14952        0.02978        2.81932
H          0.70502        2.08798        5.07433
H          1.16536        0.37022        5.23491
H          2.32455        1.54146        4.49122
H         -0.21145        3.72817        0.59187
H         -0.04001        5.11681        1.75799
H          1.43361        4.21016        1.21932
H          1.24025        7.93415       -0.57398
C          0.90908        9.43044        0.89455
C          1.35458        8.00755        0.52416
C          1.74013       10.52161        0.20520
H         -0.14731        9.54405        0.54147
H          0.92754        9.56049        1.99082
H          2.79238       10.45695        0.55027
H          1.71494       10.38481       -0.90090
C          1.18034       11.91121        0.52353
H          0.62094        7.31253        0.97967
H          0.13860       12.00948        0.14482
H          1.18011       12.08934        1.61974
H          1.80013       12.69312        0.03637
C         -1.57414        0.13505       -0.44213
C         -2.01077       -1.17558       -0.36895
C         -0.90565       -1.94898       -0.07222
C          0.16117       -1.08163        0.02281
N         -0.25249        0.18273       -0.20842
C          1.59884       -1.48397        0.32922
N          2.56186       -0.35170        0.22976
C          3.46170       -0.36602       -0.94057
H         -3.02586       -1.52663       -0.49443
H         -2.19411        1.00202       -0.62331
H         -0.88419       -3.02092        0.06770
H          1.87386       -2.31485       -0.35005
H          1.63088       -1.89800        1.35581
C          2.62425       -0.38016       -2.21204
C          4.29433        0.92171       -0.85029
C          4.43436       -1.56366       -0.96300
H          1.80547        0.31736       -2.01995
H          3.22853       -0.12157       -3.10962
H          2.13017       -1.35472       -2.39237
H          4.91686        0.90654        0.07180
H          4.97020        1.03094       -1.72517
H          3.63507        1.80657       -0.78906
H          5.04363       -1.60073       -0.04031
H          3.90741       -2.52992       -1.08730
H          5.12000       -1.46751       -1.83942
Mg         3.49034        3.59040        0.50233
C          5.42623        7.33592        2.93715
C          3.20416        7.44786        3.75682
O          4.05763        7.64528        2.63988
C          5.66701        5.88592        3.40436
C          3.53206        8.37541        4.93889
H          6.04083        7.56857        2.04878
H          5.86704        8.04993        3.66000
H          2.17247        7.69335        3.43475
H          3.18457        6.38547        4.07577
H          3.47537        9.43768        4.62144
H          2.80793        8.20062        5.76080
H          4.53940        8.17754        5.35996
H          5.17859        5.15415        2.72884
H          6.75610        5.67122        3.43862
H          5.27350        5.72818        4.43002
C          1.62461        2.44675       -3.28239
C          1.86223        3.41888       -4.22637
C          2.02667        4.56974       -3.54321
C          1.92220        4.26078       -2.19742
N          1.66743        2.92658       -1.99225
C          2.07736        5.35369       -1.19415
N          3.32246        5.32453       -0.38733
C          4.60510        5.60058       -1.09369
H          1.90038        3.30911       -5.30535
H          1.42329        1.44743       -3.62125
H          2.23154        5.54485       -3.97247
H          2.02411        6.31505       -1.72222
H          1.17983        5.35022       -0.56917
C          4.57169        7.01885       -1.70878
C          5.68004        5.52450       -0.04980
C          4.98445        4.55318       -2.17171
H          4.28217        7.76246       -0.93388
H          5.56097        7.29900       -2.12402
H          3.84528        7.09158       -2.54414
H          5.75676        4.50576        0.38804
H          6.67155        5.83567       -0.44421
H          5.37067        6.20919        0.71907
H          4.83275        3.52702       -1.78924
H          4.45083        4.68725       -3.12259
H          6.06094        4.65334       -2.43895
