95
speciation1421.ct
Na         1.44795       -2.06461       -0.67166
Mg         3.53033        0.11923       -1.35874
C         -0.87730       -2.71942       -2.52989
C          1.16229       -3.96002       -2.82157
O          0.54188       -2.76603       -2.39493
C         -1.66776       -3.97378       -2.11616
C          1.23811       -4.01614       -4.33890
H         -1.22109       -1.89630       -1.87582
H         -1.15857       -2.41447       -3.56287
H          2.20631       -3.94005       -2.43975
H          0.70521       -4.87384       -2.38971
H          1.77129       -3.11863       -4.71872
H          1.78865       -4.92786       -4.64917
H          0.21738       -4.04847       -4.77080
H         -1.23602       -4.45526       -1.21543
H         -2.71445       -3.68356       -1.87776
H         -1.71043       -4.70245       -2.95537
H          2.49425        2.77029       -2.32914
C          3.23021        2.35887       -4.28577
C          3.31598        2.13574       -2.74058
C          2.02109        1.83426       -5.10894
H          3.19153        3.46881       -4.42760
H          4.16408        2.01088       -4.76552
H          1.04122        2.17845       -4.70905
H          2.11162        2.32510       -6.11058
C          1.95142        0.32241       -5.38978
H          4.20325        2.72520       -2.41934
H          2.46022       -0.43527       -4.77239
H          1.20202       -0.02361       -4.69085
H          1.42803        0.09492       -6.35356
C          1.80885       -3.97074        1.85895
C          2.39037       -3.83790        3.10479
C          2.87364       -2.54386        3.17937
C          2.55813       -1.94613        1.97039
N          1.91376       -2.81315        1.18332
C          2.87682       -0.54081        1.53413
N          2.26033       -0.22269        0.20844
C          1.12648        0.72947        0.25342
H          2.46105       -4.60444        3.86677
H          1.34860       -4.86560        1.46275
H          3.39242       -2.10120        4.02047
H          3.97878       -0.43963        1.47879
H          2.52726        0.13873        2.33700
C          1.59016        2.13751        0.71073
C          0.54471        0.81057       -1.16152
C         -0.00917        0.21663        1.16215
H          2.41094        2.51515        0.06673
H          0.74884        2.86191        0.66901
H          1.96151        2.14393        1.75634
H          0.28263       -0.19277       -1.53652
H         -0.34669        1.46980       -1.20351
H          1.27019        1.18456       -1.86724
H         -0.33459       -0.79172        0.82766
H          0.28938        0.15954        2.22683
H         -0.88270        0.90239        1.09983
Na         7.80964        2.01234       -3.12858
Mg         6.64501        1.26818       -0.21981
H          5.68315        3.24187        1.53159
C          6.28367        1.52200        2.73883
C          5.67953        2.13192        1.46901
C          7.77681        1.82080        2.94073
H          5.71231        1.84883        3.63346
H          6.17430        0.42184        2.63294
H          8.14591        1.20151        3.78550
H          8.33273        1.51763        2.04376
C          8.10374        3.27798        3.26818
H          4.61823        1.82273        1.39599
H          7.78078        3.96094        2.45713
H          7.62178        3.57368        4.22382
H          9.20520        3.38223        3.39138
C          4.69851       -2.81971       -1.08487
C          5.75308       -3.59519       -1.54123
C          6.53727       -2.76507       -2.28860
C          5.97712       -1.50983       -2.18760
N          4.80543       -1.53847       -1.53126
C          6.56499       -0.26833       -2.72138
N          7.52122        0.37687       -1.78803
C          8.87884       -0.22055       -1.53360
H          5.94598       -4.64827       -1.36261
H          3.90188       -3.20397       -0.47003
H          7.44841       -3.03885       -2.81293
H          6.97319       -0.42475       -3.73790
H          5.72275        0.44266       -2.85126
C          9.56723       -0.48193       -2.88419
C          9.71423        0.79364       -0.71241
C          8.89813       -1.50770       -0.65599
H          9.56190        0.45381       -3.48603
H         10.61347       -0.82074       -2.76418
H          9.01988       -1.25601       -3.45913
H          9.10944        1.17336        0.12474
H         10.61166        0.31513       -0.25160
H         10.07347        1.65964       -1.29763
H          8.41510       -1.35290        0.33047
H          8.51119       -2.41550       -1.09671
H          9.95392       -1.81592       -0.48341
