96
speciation1754.ct
Na         1.70127        0.11999       -1.06406
Mg         5.98643        2.53694        3.01155
C          8.85632        1.92222        3.60741
C          8.62396        3.54833        1.95686
O          7.97184        2.49553        2.64308
C          9.15860        2.85037        4.78400
C          7.76223        4.01534        0.81437
H          8.39637        0.99100        3.99096
H          9.81790        1.58945        3.14403
H          8.81581        4.41804        2.61916
H          9.57946        3.18779        1.50345
H          6.84487        4.45468        1.24212
H          8.29245        4.79845        0.23577
H          7.52575        3.15928        0.14644
H          8.21608        3.22807        5.18739
H          9.70564        2.30353        5.58035
H          9.78151        3.71541        4.47939
H          3.07660       -4.33303        1.23315
C          1.60270       -3.13498        0.22302
C          2.78717       -3.26570        1.17021
C          2.08427       -3.49414       -1.16672
H          0.76545       -3.79751        0.54552
H          1.21770       -2.09513        0.22005
H          2.92330       -2.81498       -1.43324
H          2.44732       -4.54448       -1.16154
C          0.97749       -3.34622       -2.19515
H          2.39594       -3.03564        2.19058
H          0.13577       -4.02947       -1.95474
H          0.60967       -2.29788       -2.21675
H          1.38760       -3.60673       -3.19167
C          4.12186        4.44067        0.85343
C          3.42713        4.71106       -0.30205
C          3.63889        3.67439       -1.15226
C          4.40908        2.74915       -0.47343
N          4.76508        3.23563        0.82694
C          4.48871        1.27450       -1.10979
N          3.70958        0.18063       -0.34607
C          3.64325        0.58543        1.05453
H          2.77775        5.56036       -0.47974
H          4.05207        5.11863        1.65726
H          3.17709        3.55583       -2.12553
H          5.56084        0.99580       -1.26199
H          4.10814        1.31750       -2.16019
C          2.60454        1.75142        1.36891
C          3.07477       -0.46901        1.97521
C          5.15470        0.69020        1.32929
H          1.56133        1.40584        1.49749
H          2.88773        2.26193        2.31992
H          2.36458        2.46626        0.58650
H          3.73169       -1.31840        2.07021
H          2.99874       -0.10062        3.01262
H          2.03984       -0.71705        1.64702
H          5.60886       -0.24770        1.03746
H          5.91754        1.28097        0.78992
H          5.22653        1.23901        2.15030
Mg         4.53904       -1.75871        0.49136
C          4.70868        4.84641        4.56417
C          5.82733        3.41291        6.06892
O          5.50676        3.69218        4.68821
C          5.43725        6.14773        4.89784
C          4.64358        3.44735        7.08322
H          4.41386        4.89919        3.54637
H          3.73938        4.74480        5.09269
H          6.26649        2.39778        6.13124
H          6.60708        4.11234        6.43779
H          3.81598        2.76398        6.81578
H          5.00170        3.15847        8.09398
H          4.21269        4.46395        7.19388
H          6.32089        6.26731        4.23772
H          4.74248        6.99798        4.73126
H          5.75729        6.17786        5.95924
C          4.80481        0.44362        4.99904
C          4.64157       -0.81413        5.49460
C          5.42442       -1.63209        4.74260
C          6.05151       -0.83723        3.77016
N          5.70083        0.47380        3.99876
C          6.98342       -1.32807        2.66141
N          6.39211       -2.31187        1.64247
C          6.90636       -3.72651        1.81904
H          4.00823       -1.13520        6.30708
H          4.28331        1.30036        5.37826
H          5.48263       -2.67368        4.90762
H          7.87467       -1.72490        3.15624
H          7.41194       -0.45671        2.09417
C          6.52027       -4.23244        3.20610
C          6.28686       -4.71469        0.80861
C          8.45149       -3.83847        1.62108
H          5.41974       -4.10189        3.31258
H          6.75224       -5.30299        3.35992
H          7.08722       -3.67894        3.97950
H          6.56806       -4.48403       -0.23813
H          6.66926       -5.74351        1.02495
H          5.19122       -4.76761        0.89922
H          8.73612       -3.58304        0.57844
H          9.05896       -3.20961        2.29651
H          8.78772       -4.88282        1.81591
