110
speciation2387.ct
Na         4.83042        6.30416       -3.41221
Mg         1.37197        5.52459        1.84387
C          7.74853        7.86474       -3.35891
C          8.22998        6.17780       -4.80314
O          7.18377        6.67116       -3.90386
C          6.88848        8.35549       -2.22517
C          7.89416        4.95259       -5.64280
H          8.75262        7.66278       -2.90586
H          7.84660        8.67195       -4.12377
H          8.56791        6.97119       -5.51909
H          9.13234        5.87631       -4.21381
H          6.94564        5.06991       -6.18183
H          8.70954        4.82748       -6.40992
H          7.90748        4.04193       -5.01894
H          6.77359        7.52849       -1.49900
H          7.39885        9.21529       -1.74781
H          5.91411        8.66462       -2.63859
H          3.88244        5.23653        1.04894
C          4.36033        6.06713        2.97944
C          3.46738        5.99086        1.75190
C          4.38629        4.73961        3.73029
H          5.39260        6.32686        2.64787
H          3.98847        6.87448        3.64497
H          3.35550        4.49426        4.06227
H          4.75448        3.92892        3.06245
C          5.30216        4.83069        4.94779
H          3.53194        6.97875        1.25375
H          6.35109        5.01872        4.63057
H          4.97318        5.65492        5.61615
H          5.26644        3.87651        5.51272
C          5.36397        3.23987       -2.95499
C          5.00712        2.12982       -3.68773
C          4.22211        2.57094       -4.74593
C          4.17211        3.95078       -4.61164
N          4.84428        4.34229       -3.53654
C          3.43176        4.88184       -5.56359
N          3.51998        6.29803       -5.09240
C          3.63364        7.36300       -6.07524
H          5.27929        1.09812       -3.50280
H          5.99456        3.26306       -2.07442
H          3.77798        1.96985       -5.52491
H          2.35698        4.60626       -5.65645
H          3.91935        4.77905       -6.56950
C          2.52812        7.30805       -7.17922
C          3.46742        8.71613       -5.34296
C          5.01975        7.31152       -6.72878
H          1.51347        7.40838       -6.72941
H          2.66841        8.14045       -7.90007
H          2.57259        6.35677       -7.74137
H          4.19077        8.79195       -4.50271
H          3.62584        9.57248       -6.03018
H          2.43913        8.80828       -4.91544
H          5.78032        7.26484       -5.92319
H          5.12545        6.40288       -7.35156
H          5.20867        8.18655       -7.36067
Na         1.61505        6.51569       -4.07272
Mg        -0.81352        5.11545       -0.85612
C         -2.57157        4.87699       -2.99123
C         -2.17895        7.07783       -2.16790
O         -2.37142        5.70613       -1.84993
C         -1.50283        4.99399       -4.08953
C         -3.44561        7.74782       -2.71370
H         -2.57164        3.82815       -2.63816
H         -3.58569        5.03296       -3.41566
H         -1.91982        7.60561       -1.22594
H         -1.31408        7.23782       -2.84214
H         -4.26656        7.68588       -1.96848
H         -3.23512        8.81804       -2.92328
H         -3.77797        7.28147       -3.66336
H         -0.49087        4.84623       -3.66277
H         -1.68184        4.21939       -4.86382
H         -1.55391        5.97662       -4.60355
H         -0.80429        6.02510        3.33906
C          0.51858        7.23919        4.58208
C          0.25371        6.01894        3.66887
C          0.41722        8.60620        3.88155
H         -0.21047        7.22586        5.42772
H          1.53461        7.14240        5.01344
H          0.66773        9.39434        4.63320
H          1.16468        8.67337        3.06550
C         -0.99320        8.88063        3.34194
H          0.34679        5.11536        4.30101
H         -1.19020        8.80120        2.25800
H         -1.75086        9.01278        4.14547
H         -1.33435        7.94951        2.92691
C          3.04624        8.32510       -1.45860
C          1.99640        8.60147       -0.60194
C          1.38732        7.40609       -0.31900
C          2.08403        6.43208       -1.01647
N          3.13556        6.99685       -1.73555
C          1.68391        4.94813       -0.98849
N          0.78453        4.50955        0.16330
C          0.55523        3.05658        0.24729
H          1.69423        9.57334       -0.23174
H          3.69521        9.08432       -1.86963
H          0.51059        7.27604        0.30863
H          1.17069        4.75264       -1.95480
H          2.64532        4.42180       -1.01909
C          1.89609        2.31540        0.48094
C         -0.39793        2.84960        1.43491
C         -0.21345        2.49117       -0.99510
H          2.34843        2.64383        1.44590
H          1.76002        1.21705        0.48052
H          2.64774        2.50395       -0.30882
H         -1.37333        3.34230        1.21302
H         -0.58957        1.77125        1.61254
H          0.00208        3.32082        2.35398
H         -1.19200        3.00462       -1.06857
H         -0.42659        1.41515       -0.82322
H          0.24827        2.56313       -2.00148
