110
speciation2081.ct
Na         7.33843        9.21914       -1.15325
Mg         1.66491        4.20231       -3.82309
C          7.31482       11.86636        0.31608
C          5.05522       11.60879       -0.27255
O          6.40044       11.26407       -0.58680
C          7.10077       11.46024        1.78282
C          4.11527       11.39077       -1.45490
H          8.33156       11.53044        0.02312
H          7.31267       12.97264        0.20110
H          4.68062       11.02832        0.59670
H          4.98775       12.70021       -0.04810
H          4.01694       10.31241       -1.69552
H          3.10717       11.78100       -1.18645
H          4.47015       11.94464       -2.34940
H          7.11559       10.35476        1.88452
H          7.90982       11.89102        2.40901
H          6.13792       11.85234        2.17338
H         -1.14281        4.05353       -4.19504
C         -1.01383        6.01172       -3.55488
C         -0.48333        4.57954       -3.49300
C         -2.47365        6.06172       -3.09339
H         -0.42270        6.71288       -2.94536
H         -0.94283        6.36497       -4.60336
H         -3.10693        5.43528       -3.76038
H         -2.55881        5.66837       -2.05516
C         -2.97314        7.49791       -3.11236
H         -0.67625        4.09496       -2.51338
H         -2.36179        8.11382       -2.41759
H         -2.89100        7.91365       -4.13865
H         -4.03250        7.53352       -2.78538
C          5.59417        7.23198       -5.42991
C          5.31057        8.34836       -4.68739
C          6.28202        8.43154       -3.72357
C          7.10713        7.33640       -3.90412
N          6.66883        6.59344       -4.93057
C          8.38652        7.02861       -3.19765
N          8.29664        7.13015       -1.73189
C          9.61796        7.09142       -1.04719
H          4.48990        9.03773       -4.84876
H          5.03569        6.89920       -6.29179
H          6.36219        9.22432       -3.00683
H          9.07445        7.79182       -3.59335
H          8.74432        6.02267       -3.50650
C         10.56176        8.23165       -1.51434
C          9.36104        7.29050        0.45425
C         10.32100        5.73366       -1.26006
H         10.07372        9.22204       -1.39181
H         11.50173        8.22592       -0.92157
H         10.88110        8.11742       -2.57003
H          8.69600        6.49427        0.84856
H         10.31656        7.26819        1.02384
H          8.87778        8.27548        0.63490
H          9.66085        4.89753       -0.94771
H         10.60401        5.58796       -2.32359
H         11.26078        5.68543       -0.66769
Na         7.62073        4.78780       -5.58445
Mg         7.17301        5.69745       -1.06200
C          3.26153        4.29047       -6.37944
C          2.07594        6.34128       -5.93313
O          2.27423        4.96502       -5.58534
C          4.65281        4.30224       -5.79328
C          1.80296        6.63374       -7.43513
H          3.00788        3.22941       -6.52600
H          3.27346        4.60304       -7.43837
H          1.15589        6.67163       -5.41923
H          2.89308        6.98261       -5.56090
H          0.98388        5.99347       -7.82728
H          1.50578        7.69609       -7.57085
H          2.70443        6.50863       -8.07224
H          4.68560        5.03956       -4.98620
H          5.39646        4.48784       -6.60422
H          4.89987        3.33380       -5.32168
H          2.54033        1.83800       -4.68459
C          0.58975        2.22971       -5.64321
C          1.53196        2.21482       -4.41640
C          0.31390        0.89398       -6.31804
H         -0.39023        2.60293       -5.35004
H          0.94506        2.92873       -6.41818
H         -0.40486        1.11379       -7.13970
H          1.23130        0.46037       -6.76924
C         -0.34357       -0.09635       -5.36467
H          1.10788        1.61230       -3.58903
H          0.40944       -0.49971       -4.65742
H         -1.15988        0.39628       -4.79144
H         -0.78108       -0.93027       -5.94978
C          6.64053        3.26053        0.47408
C          5.80202        2.17739        0.53660
C          4.84925        2.34958       -0.44848
C          5.13634        3.54735       -1.06254
N          6.24371        4.09759       -0.51059
C          4.34170        4.18647       -2.20198
N          2.88765        4.35865       -1.96089
C          2.49653        5.18572       -0.76683
H          5.88479        1.34400        1.22583
H          7.50867        3.44203        1.09357
H          4.03488        1.67543       -0.67987
H          4.80843        5.15765       -2.47518
H          4.45862        3.50211       -3.06912
C          3.00836        6.64626       -0.89783
C          0.97603        5.22584       -0.65421
C          2.94037        4.61694        0.61278
H          2.64724        7.09731       -1.84410
H          2.63718        7.26788       -0.05137
H          4.10985        6.68375       -0.86980
H          0.55674        4.20118       -0.54983
H          0.62159        5.84026        0.20274
H          0.60548        5.70238       -1.53923
H          2.59334        3.56589        0.72585
H          4.01987        4.68883        0.79915
H          2.48755        5.20008        1.44780
