83
speciation557.ct
Na         1.11085        1.70696        0.36598
Mg         3.13567        6.67091       -2.94489
C          1.23439        1.83471        3.75978
C         -0.21350        3.07967        2.38992
O          1.03843        2.44193        2.45590
C          0.18427        0.78194        4.20870
C         -0.24250        4.37481        3.18747
H          2.25247        1.40639        3.80780
H          1.34260        2.59269        4.55973
H         -0.40075        3.33079        1.32745
H         -1.04164        2.39475        2.65948
H          0.49796        5.08215        2.76261
H         -1.26167        4.80087        3.12908
H         -0.01589        4.20838        4.25854
H         -0.01091        0.01007        3.43758
H          0.53281        0.26682        5.13185
H         -0.77946        1.26118        4.46829
C         -1.83816        0.77316       -0.19706
C         -2.35400       -0.47661       -0.47126
C         -1.28612       -1.35882       -0.47710
C         -0.16012       -0.60122       -0.22471
N         -0.51103        0.67597       -0.02927
C          1.27512       -1.09217       -0.16342
N          2.24500        0.03300       -0.00400
C          3.35333       -0.21997        0.95180
H         -3.39331       -0.71306       -0.65190
H         -2.39092        1.70107       -0.12900
H         -1.33037       -2.42299       -0.65905
H          1.52297       -1.63220       -1.09949
H          1.31059       -1.83091        0.65714
C          4.28564       -1.36847        0.51051
C          4.16464        1.08479        1.02469
C          2.81184       -0.60703        2.32758
H          4.74567       -1.18173       -0.47718
H          5.10383       -1.49424        1.25592
H          3.73088       -2.33112        0.46612
H          3.51860        1.94027        1.31330
H          4.99695        1.00254        1.75582
H          4.60467        1.31045        0.02849
H          1.87791       -0.07631        2.42971
H          2.51790       -1.67201        2.41111
H          3.54668       -0.41439        3.13896
Na         3.59933        0.09296       -1.94799
C          6.27916        0.34172       -3.47904
C          4.52071        1.01483       -4.89489
O          4.92508        0.15166       -3.85097
C          6.59149        1.73598       -2.91866
C          3.06594        0.73812       -5.23880
H          6.49392       -0.39445       -2.67573
H          6.96057        0.08640       -4.32002
H          4.59121        2.08501       -4.61161
H          5.12481        0.80961       -5.80748
H          2.42593        0.96814       -4.36373
H          2.75448        1.37839       -6.09195
H          2.92710       -0.32758       -5.51580
H          5.89225        1.98761       -2.09432
H          7.63039        1.75067       -2.52770
H          6.53244        2.51358       -3.70754
C          0.65520        2.42063       -2.63617
C          0.95026        3.25488       -3.69529
C          1.75011        4.24905       -3.19183
C          1.89792        3.98136       -1.83934
N          1.21726        2.87240       -1.48865
C          2.73492        4.76844       -0.88985
N          2.59618        6.21778       -1.12087
C          3.40966        7.07453       -0.22207
H          0.64928        3.13929       -4.72952
H          0.08129        1.51251       -2.71133
H          2.17668        5.06428       -3.76063
H          2.42502        4.48488        0.14088
H          3.77230        4.44143       -1.07377
C          4.89709        6.65942       -0.20891
C          3.31987        8.50693       -0.75627
C          2.83190        7.02568        1.20807
H          5.31487        6.66588       -1.24011
H          5.49034        7.36583        0.41214
H          5.04935        5.65204        0.23158
H          2.26710        8.85663       -0.79027
H          3.90353        9.20269       -0.11484
H          3.73700        8.56444       -1.78723
H          1.75642        7.29903        1.19377
H          2.93373        6.01721        1.65608
H          3.37638        7.73708        1.86424
