80
speciation883.ct
Na         1.22309        0.24523        1.07027
Mg         4.49180       -0.53113        2.23519
H          3.39664       -0.30425        4.73042
C          2.25743       -1.74653        3.58269
C          3.01525       -0.43401        3.69661
C          3.19678       -2.89520        3.95016
H          1.37437       -1.74054        4.25929
H          1.89537       -1.86029        2.54231
H          4.09149       -2.86962        3.29199
H          3.52334       -2.76928        5.00802
C          2.51876       -4.24779        3.79942
H          2.34201        0.41181        3.46374
H          1.61938       -4.30456        4.44594
H          2.22956       -4.40915        2.74134
H          3.23037       -5.04417        4.10256
C          0.96347       -0.95577       -3.40004
C          2.19801       -1.14462       -3.97981
C          3.10431       -1.29046       -2.95656
C          2.40813       -1.18096       -1.76422
N          1.06864       -0.99088       -2.06105
C          3.12917       -1.36940       -0.38645
N          3.22047       -0.24751        0.60340
C          3.97468        0.98730        0.26540
H          2.41819       -1.18554       -5.03813
H          0.03304       -0.81681       -3.93209
H          4.16648       -1.47072       -3.06207
H          4.16352       -1.72626       -0.58603
H          2.63709       -2.22574        0.11752
C          3.20632        1.86494       -0.70620
C          4.16440        1.83495        1.56919
C          5.36550        0.61890       -0.28681
H          2.22779        2.14651       -0.25882
H          3.78343        2.79927       -0.89551
H          3.04110        1.35488       -1.66627
H          4.69210        1.33236        2.39312
H          4.76753        2.74543        1.36531
H          3.18957        2.15597        1.99227
H          5.85319       -0.12221        0.36440
H          5.28404        0.15320       -1.28567
H          6.02045        1.51189       -0.36549
Na        -2.24266       -2.33984        1.66695
Mg        -0.44159       -0.78329       -0.78190
H          7.36478       -0.67293        1.92066
C          7.33287       -0.50169        4.06220
C          6.73861       -0.17543        2.69312
C          7.22955       -1.99134        4.35059
H          8.40660       -0.19234        4.08575
H          6.79159        0.08279        4.83636
H          6.16517       -2.28798        4.29406
H          7.81154       -2.56061        3.59267
C          7.75879       -2.32308        5.74336
H          6.89922        0.91861        2.55590
H          8.83603       -2.06878        5.82735
H          7.18863       -1.75777        6.51203
H          7.62863       -3.40883        5.93211
C         -4.40063        2.17842        3.31881
C         -4.32270        0.95846        3.94935
C         -3.31008        0.22861        3.33937
C         -2.78654        0.97653        2.35919
N         -3.42924        2.23982        2.30893
C         -1.67417        0.57758        1.39639
N         -1.95181       -0.57570        0.49725
C         -3.16172       -0.44559       -0.38572
H         -4.95695        0.63382        4.77444
H         -5.09983        2.96959        3.56512
H         -3.01043       -0.77387        3.60235
H         -0.79155        0.33574        2.02417
H         -1.40459        1.46128        0.78883
C         -3.07743        0.81639       -1.27682
C         -3.22107       -1.68009       -1.29327
C         -4.51890       -0.42136        0.37815
H         -2.14555        0.80227       -1.88333
H         -3.95060        0.86676       -1.96445
H         -3.09706        1.74735       -0.66943
H         -3.33628       -2.60209       -0.68131
H         -4.09878       -1.62168       -1.97779
H         -2.30684       -1.76642       -1.91019
H         -4.62190       -1.29527        1.05488
H         -4.70805        0.50655        0.94523
H         -5.37006       -0.44223       -0.33809
