95
speciation1207.ct
Na         0.96986       -0.07582       -0.05782
Mg         4.29944       -1.61548        0.80637
C         -2.00914       -0.07330       -1.28537
C         -1.93833        0.88371        0.80441
O         -1.35014       -0.07582       -0.05782
C         -1.45149       -1.21212       -2.08851
C         -1.38403        0.75117        2.21808
H         -3.09196       -0.29119       -1.14117
H         -1.88844        0.89983       -1.79864
H         -1.76124        1.91741        0.43258
H         -3.03434        0.69824        0.89864
H         -0.30289        0.97821        2.24700
H         -1.90795        1.46890        2.88612
H         -1.54584       -0.27716        2.60342
H         -1.50816       -2.14364       -1.49613
H         -2.09584       -1.37051       -2.95578
H         -0.39828       -0.99335       -2.37651
H          3.48290       -3.95299        1.89289
C          1.72381       -3.30626        0.79171
C          2.94929       -3.00637        1.66487
C          2.12648       -3.97835       -0.52687
H          1.03173       -3.98203        1.34328
H          1.18859       -2.35587        0.58567
H          2.84204       -3.33404       -1.06859
H          2.62206       -4.95021       -0.32035
C          0.91691       -4.22117       -1.42926
H          2.60250       -2.55733        2.61952
H          0.18557       -4.89875       -0.93975
H          0.42724       -3.25812       -1.66140
H          1.24397       -4.67545       -2.38778
C          5.04735        1.26479       -4.12092
C          6.09779        1.03171       -3.25688
C          5.55584        0.43792       -2.14146
C          4.19434        0.37207       -2.36730
N          3.88533        0.84122       -3.58299
C          3.15232       -0.19600       -1.50396
N          3.33986       -0.07582       -0.05782
C          3.42435        1.18116        0.72837
H          7.13982        1.26059       -3.42147
H          5.12948        1.70236       -5.10668
H          6.09188        0.09530       -1.26743
H          3.11684       -1.27352       -1.73871
H          2.17219        0.20969       -1.82250
C          2.21796        2.12889        0.51133
C          3.42566        0.73292        2.19633
C          4.70260        1.98192        0.43607
H          1.26900        1.70739        0.87646
H          2.34500        3.05681        1.11185
H          2.11310        2.41433       -0.55443
H          4.29826        0.07834        2.39865
H          3.48309        1.60163        2.89832
H          2.51345        0.15306        2.42808
H          5.61022        1.37406        0.62103
H          4.69528        2.36557       -0.60446
H          4.75062        2.87567        1.09731
Na         1.90346        0.96992       -4.87624
Mg         0.04795        2.94190       -6.79730
H          6.96185       -1.12647        0.72919
C          7.06643       -2.93238        1.91633
C          6.36552       -1.62678        1.52140
C          7.13172       -3.91414        0.74631
H          8.10382       -2.69785        2.25405
H          6.52290       -3.39617        2.76657
H          6.09934       -4.14853        0.41235
H          7.69355       -3.45864       -0.09896
C          7.82937       -5.21457        1.15161
H          6.38748       -0.96735        2.41498
H          8.87759       -5.02369        1.44815
H          7.29370       -5.70024        1.99205
H          7.83229       -5.91495        0.28379
C          3.06434        0.56582       -9.54038
C          3.64583        0.08156       -8.38904
C          2.64238       -0.05304       -7.44552
C          1.48984        0.34520       -7.99733
N          1.69059        0.75943       -9.33333
C          0.12383        0.24773       -7.37225
N         -0.07842        1.09861       -6.16950
C         -1.44950        0.97094       -5.61819
H          4.68447       -0.17757       -8.26888
H          3.57854        0.75464      -10.47165
H          2.75216       -0.46268       -6.45094
H          0.02241       -0.82879       -7.12112
H         -0.60398        0.51229       -8.15848
C         -1.79334       -0.50174       -5.32812
C         -1.50583        1.80099       -4.33477
C         -2.53702        1.52355       -6.57740
H         -0.97483       -0.95521       -4.73509
H         -2.78130       -0.57050       -4.82480
H         -1.90585       -1.10044       -6.25306
H         -1.32184        2.87327       -4.56212
H         -2.51055        1.72078       -3.86303
H         -0.72431        1.46140       -3.62607
H         -2.36265        2.59375       -6.80869
H         -2.59894        0.95807       -7.52880
H         -3.54263        1.43021       -6.10747
