110
speciation1933.ct
Na         1.20122        2.98483        3.66883
Mg        -3.10571       -1.43676        2.25521
C          1.49048        0.63313        5.61781
C          0.12878        2.19206        6.70792
O          0.97258        1.95235        5.58725
C          0.39752       -0.41497        5.39058
C         -0.52158        3.55331        6.62516
H          2.22901        0.55997        4.79492
H          2.06488        0.42040        6.55227
H         -0.71630        1.47315        6.76583
H          0.72573        2.15454        7.64782
H         -1.23887        3.57339        5.77803
H         -1.08083        3.73516        7.57028
H          0.25125        4.33552        6.49832
H         -0.27011       -0.06612        4.58537
H          0.83379       -1.39380        5.11441
H         -0.20539       -0.56823        6.31010
H         -5.42413       -1.35181        3.74380
C         -5.60626        0.50108        2.61018
C         -4.77238       -0.53122        3.38673
C         -6.20276       -0.08206        1.33061
H         -6.42694        0.89624        3.25162
H         -4.97251        1.36639        2.33403
H         -6.72988        0.73184        0.78472
H         -5.38983       -0.47258        0.68267
C         -7.21013       -1.18887        1.62675
H         -4.39554       -0.02689        4.30430
H         -6.72036       -2.05076        2.12169
H         -8.01459       -0.79424        2.28399
H         -7.65663       -1.55325        0.68093
C         -0.04994        4.08904        0.84732
C         -1.00422        3.95006       -0.13991
C         -1.77606        2.90264        0.25680
C         -1.28477        2.40377        1.41614
N         -0.20517        3.14113        1.82259
C         -1.89183        1.15581        2.04752
N         -2.29350        0.04802        1.08412
C         -1.22801       -0.52555        0.27159
H         -1.12832        4.51454       -1.06344
H          0.72222        4.84549        0.80642
H         -2.57158        2.45687       -0.25225
H         -1.23029        0.81119        2.85201
H         -2.80984        1.49486        2.55721
C         -0.19540       -1.13866        1.26104
C         -2.06125       -1.42053       -0.67026
C         -0.43724        0.45816       -0.64815
H         -0.67956       -1.68089        2.09436
H          0.60223       -1.73735        0.78833
H          0.34781       -0.30413        1.77386
H         -2.66742       -0.73388       -1.31867
H         -1.49128       -2.06268       -1.35916
H         -2.83076       -2.00462       -0.11691
H         -1.10481        1.05764       -1.29898
H          0.23399        1.13355       -0.07517
H          0.23731       -0.08336       -1.33879
Na        -3.88064        0.97931       -0.40939
Mg        -5.82944        0.62141       -3.37507
C          3.65125        3.65920        2.13463
C          4.12962        4.00011        4.39910
O          3.10887        3.98707        3.40569
C          4.06319        2.19004        2.02871
C          3.63414        4.66763        5.67410
H          2.86027        3.85249        1.38582
H          4.49534        4.33091        1.84342
H          4.48321        2.97400        4.63844
H          4.99963        4.61463        4.06083
H          2.82704        4.06819        6.14082
H          4.47338        4.75603        6.40013
H          3.25827        5.68643        5.44518
H          3.23455        1.54634        2.38735
H          4.28708        1.93954        0.97014
H          4.97785        1.98616        2.62505
H         -3.04579       -4.21934        1.64103
C         -2.83786       -4.46909        3.78377
C         -2.56029       -3.68080        2.47988
C         -2.20244       -3.78419        4.99579
H         -3.93278       -4.55382        3.94920
H         -2.43458       -5.50874        3.71133
H         -2.43740       -4.35579        5.92333
H         -1.09616       -3.74811        4.88603
C         -2.75963       -2.37551        5.11841
H         -1.46382       -3.74171        2.30777
H         -2.50887       -1.80060        4.20593
H         -3.86299       -2.43529        5.23272
H         -2.32168       -1.83859        5.97668
C         -6.16839       -0.98818       -6.12324
C         -6.65254       -2.24010       -6.18729
C         -6.95284       -2.52580       -4.84139
C         -6.63153       -1.33809       -4.14153
N         -6.19110       -0.66780       -4.84723
C         -6.37313        0.10743       -2.45182
N         -5.46777        1.91061       -1.90291
C         -5.02651        3.07246       -2.69563
H         -6.77437       -2.77748       -7.11380
H         -5.84486       -0.29942       -6.91167
H         -7.35313       -3.45878       -4.52150
H         -7.45224        0.47308       -2.48944
H         -6.53261       -0.45954       -1.51426
C         -6.20169        3.76795       -3.37584
C         -4.44624        4.13360       -1.73061
C         -3.94463        2.64499       -3.68990
H         -6.93546        4.09968       -2.60541
H         -5.83374        4.68455       -3.89544
H         -6.69703        3.10563       -4.10486
H         -3.55175        3.78672       -1.27328
H         -4.11584        5.05817       -2.24715
H         -5.15450        4.39897       -0.91374
H         -3.11057        2.14197       -3.15042
H         -4.36664        1.93935       -4.43185
H         -3.53095        3.52988       -4.22046
