110
speciation2323.ct
Na         1.05705       -0.04554       -0.06834
Mg         4.14163        1.27039        1.50857
C         -1.73641       -1.38185       -0.13156
C         -1.86261        0.77357       -1.06162
O         -1.26295       -0.04554       -0.06834
C         -1.41565       -2.11445       -1.44334
C         -1.31354        2.19258       -0.99922
H         -1.23793       -1.93628        0.69098
H         -2.82680       -1.42499        0.08233
H         -1.65651        0.41223       -2.08890
H         -2.95968        0.83391       -0.88483
H         -0.22982        2.20209       -1.22748
H         -1.83111        2.82380       -1.75288
H         -1.48723        2.63534       -0.00340
H         -0.33735       -2.05001       -1.66614
H         -1.69613       -3.18378       -1.35086
H         -1.98748       -1.70506       -2.30020
H          3.80110        4.51858        2.20941
C          1.78170        3.88572        1.78543
C          3.33757        3.62226        1.74591
C          1.11022        3.24077        2.97793
H          1.55344        4.97298        1.72999
H          1.27454        3.42150        0.92512
H          1.34068        2.18111        2.86386
H          1.51555        3.66889        3.91748
C         -0.41496        3.31778        2.97076
H          3.66391        2.97545        2.57707
H         -0.77424        4.36498        2.97904
H         -0.81784        2.78914        2.08509
H         -0.80730        2.79280        3.86754
C          4.21026        3.71021       -2.72356
C          3.16862        4.54714       -2.38053
C          2.48923        3.95742       -1.34599
C          3.18551        2.76443       -1.06465
N          4.16896        2.64234       -1.90948
C          2.84813        1.47915       -0.05004
N          3.42705       -0.04554       -0.06834
C          3.12685       -0.38161       -1.70279
H          2.91490        5.48115       -2.87760
H          4.93512        3.86164       -3.50039
H          1.59263        4.34650       -0.91127
H          2.49450        1.62258        0.95787
H          1.82394        1.59403       -0.34251
C          4.22495       -0.07797       -2.89500
C          2.71953       -1.86609       -1.98568
C          1.86185        0.34202       -2.40636
H          4.27382        0.94297       -3.28045
H          3.95257       -0.56169       -3.85590
H          5.28890       -0.32499       -2.78658
H          1.83693       -2.17496       -1.41913
H          2.44824       -1.97709       -3.07189
H          3.44931       -2.66244       -1.89028
H          0.86972        0.03613       -2.04814
H          1.86169        1.43566       -2.49632
H          1.79337        0.09677       -3.48944
Na         6.87037        2.91587        2.78254
Mg         4.82102        0.89479       -1.21597
C          8.53765        5.40193        3.67008
C          8.18811        3.93562        5.48170
O          7.64370        4.49166        4.29952
C          9.91516        4.83371        3.28043
C          7.19639        2.96418        6.10482
H          8.04199        5.73832        2.73532
H          8.66754        6.31101        4.29594
H          9.11468        3.35744        5.28343
H          8.38328        4.74337        6.22205
H          7.02029        2.10677        5.42052
H          7.61300        2.57483        7.05922
H          6.23279        3.47265        6.31461
H          9.82208        3.92416        2.66947
H         10.46689        5.58490        2.67790
H         10.53676        4.60418        4.16908
H          4.09724       -0.57659        3.57081
C          2.26024        0.25282        4.29817
C          3.63024        0.42517        3.58941
C          1.28432       -0.57754        3.45109
H          2.39463       -0.23434        5.28864
H          1.83140        1.23381        4.56306
H          1.21620       -0.15808        2.42614
H          1.66774       -1.61732        3.38716
C         -0.13254       -0.59196        4.03568
H          4.23191        1.08543        4.25511
H         -0.13851       -0.97435        5.07773
H         -0.56508        0.43030        4.02538
H         -0.78553       -1.24094        3.41283
C          5.65323       -2.06960       -1.12813
C          6.25448       -2.99201       -0.30854
C          6.55617       -2.33785        0.83808
C          6.13082       -1.04003        0.66167
N          5.47309       -0.85277       -0.52245
C          6.52093       -0.01005        1.64314
N          6.08038        1.30611        1.23286
C          7.03375        2.05848        0.27973
H          6.50706       -4.01642       -0.55212
H          5.42328       -2.32010       -2.14932
H          7.10504       -2.73980        1.68024
H          7.61667       -0.05902        1.75798
H          6.11379       -0.24596        2.63862
C          7.19658        1.50128       -1.15975
C          6.57984        3.54345        0.15917
C          8.50332        2.10187        0.81282
H          6.35101        1.64922       -1.82628
H          7.98901        2.07280       -1.69556
H          7.53240        0.44692       -1.16224
H          6.55588        4.09450        1.11456
H          7.26651        4.11679       -0.50403
H          5.57422        3.64090       -0.26063
H          8.58765        2.41265        1.85510
H          9.02792        1.13165        0.72431
H          9.11480        2.81917        0.21707
