96
speciation1612.ct
Na         1.29734        0.41111       -0.27118
Mg         0.74113       -6.61820       -0.21369
C          1.39294       -8.94613       -1.50347
C         -0.65163       -8.10522       -2.28907
O          0.20640       -8.25048       -1.16579
C          2.32434       -8.16239       -2.42441
C         -1.14738       -9.45781       -2.83306
H          1.85403       -9.18544       -0.56472
H          1.22800       -9.97743       -1.85606
H         -1.55750       -7.56312       -1.96264
H         -0.18137       -7.50038       -3.09150
H         -1.64197      -10.03203       -2.02101
H         -1.86314       -9.29383       -3.66125
H         -0.32576      -10.06949       -3.25778
H          2.43290       -7.11174       -2.08037
H          3.32411       -8.63842       -2.44348
H          1.93215       -8.15732       -3.46567
H         -1.20162       -4.97137        0.86554
C         -2.10775       -6.90277        1.27502
C         -1.26503       -5.97362        0.39187
C         -1.50107       -7.05628        2.66993
H         -3.12968       -6.46903        1.37973
H         -2.20226       -7.89380        0.78022
H         -0.47420       -7.47075        2.58980
H         -1.45192       -6.05685        3.15523
C         -2.34645       -7.98147        3.54665
H         -1.82071       -5.83416       -0.55888
H         -3.38504       -7.59586        3.64137
H         -2.37815       -9.00392        3.11378
H         -1.90070       -8.03975        4.56189
C          5.34781       -0.25604       -3.33388
C          5.41260        1.00394       -3.90592
C          4.91641        1.89335       -2.97503
C          4.53619        1.13807       -1.88077
N          4.82297       -0.15570       -2.09454
C          3.89575        1.65562       -0.59884
N          3.38183        0.52686        0.22228
C          3.49402        0.60727        1.68565
H          5.80786        1.24884       -4.88895
H          5.66464       -1.18141       -3.79737
H          4.83187        2.96654       -3.08300
H          3.03092        2.29804       -0.86131
H          4.64548        2.28254       -0.08431
C          2.73492        1.78011        2.31757
C          2.91969       -0.71429        2.24107
C          4.95871        0.78143        2.03117
H          1.65042        1.72189        2.10946
H          2.89354        1.75468        3.42081
H          3.12941        2.74638        1.94038
H          3.35451       -1.59863        1.73050
H          3.10788       -0.81197        3.33099
H          1.81542       -0.74703        2.08802
H          5.48455        0.29657        1.21568
H          5.31105        1.82557        1.93947
H          5.19487        0.42397        3.05437
Mg         4.32670       -1.08586       -0.52471
C          7.09493       -1.43405        1.25070
C          6.62287       -2.68886       -0.67092
O          6.04012       -1.94043        0.39083
C          8.07492       -0.44802        0.58375
C          7.46834       -3.88707       -0.20398
H          6.67190       -0.99991        2.16479
H          7.64367       -2.23321        1.78253
H          5.79833       -3.08673       -1.29320
H          7.22872       -2.03610       -1.33440
H          6.86635       -4.53537        0.43181
H          7.83330       -4.46745       -1.07287
H          8.36807       -3.60331        0.37934
H          7.53704        0.31280       -0.02121
H          8.67513        0.07365        1.35928
H          8.79241       -0.99299       -0.06735
C          1.83752       -1.77490       -1.81553
C          0.78079       -2.62905       -1.99085
C          1.06708       -3.74615       -1.25247
C          2.28723       -3.52321       -0.64898
N          2.77494       -2.29192       -1.00803
C          2.98699       -4.39304        0.33947
N          2.61367       -5.83643        0.34287
C          3.43070       -6.61731        1.33410
H         -0.11052       -2.43751       -2.57199
H          1.91781       -0.77944       -2.25910
H          0.43108       -4.61032       -1.14151
H          4.05561       -4.28656        0.08264
H          2.80047       -3.91875        1.32106
C          3.21320       -6.11147        2.77287
C          3.05305       -8.09094        1.30846
C          4.93395       -6.56723        0.99483
H          2.13521       -6.14543        3.03126
H          3.78351       -6.74403        3.48983
H          3.59931       -5.08420        2.91290
H          3.47489       -8.54586        0.39199
H          3.54714       -8.64512        2.13524
H          1.95525       -8.21223        1.42478
H          5.10802       -6.81953       -0.07785
H          5.31387       -5.57220        1.22709
H          5.52155       -7.27559        1.61727
