96
speciation991.ct
Na         1.14189        0.16299       -4.14885
Mg        -3.28797        2.80323        0.30132
C         -0.60186       -2.33287       -3.95280
C          1.55581       -3.16138       -4.53499
O          0.75667       -2.02824       -4.19705
C         -0.82203       -3.37752       -2.84691
C          1.10637       -3.92412       -5.79919
H         -1.07190       -1.40280       -3.60272
H         -1.13603       -2.60521       -4.88717
H          2.60727       -2.84283       -4.68717
H          1.60797       -3.86424       -3.67421
H          1.21058       -3.29030       -6.70102
H          1.74673       -4.82588       -5.93663
H          0.06218       -4.29708       -5.72577
H         -0.27039       -3.09103       -1.92750
H         -1.90471       -3.44513       -2.61295
H         -0.49618       -4.38890       -3.17008
H         -3.87081        5.07366       -1.03026
C         -5.43494        3.90188       -1.94716
C         -4.03138        4.02705       -1.36665
C         -5.60971        4.85798       -3.14791
H         -5.58815        2.85668       -2.29037
H         -6.17288        4.14457       -1.15618
H         -5.43078        5.90903       -2.83017
H         -4.87432        4.60664       -3.94569
C         -7.01279        4.75884       -3.73663
H         -3.33932        3.84536       -2.21143
H         -7.20867        3.72473       -4.09004
H         -7.76664        5.03798       -2.97149
H         -7.10852        5.45275       -4.60016
C          1.12192        3.10552       -2.86796
C          0.47408        4.08897       -2.15318
C         -0.71679        3.55028       -1.75198
C         -0.76174        2.25919       -2.24746
N          0.38067        1.96498       -2.93696
C         -1.92182        1.32033       -2.05593
N         -2.43163        1.18778       -0.66744
C         -1.52744        0.58250        0.33708
H          0.82264        5.09619       -1.93969
H          2.08879        3.23107       -3.32712
H         -1.44839        4.07061       -1.15807
H         -2.75955        1.69642       -2.68194
H         -1.66535        0.33770       -2.47334
C         -0.40870        1.56613        0.74664
C         -2.37721        0.32368        1.56918
C         -0.95650       -0.76194       -0.11164
H         -0.84678        2.54653        1.03257
H          0.15879        1.16105        1.60901
H          0.32384        1.70244       -0.06286
H         -3.15906       -0.45136        1.37713
H         -1.77734        0.01345        2.44850
H         -2.86671        1.26458        1.81164
H         -1.78220       -1.45159       -0.42035
H         -0.25820       -0.65239       -0.95920
H         -0.41106       -1.25473        0.72361
Mg        -3.89257       -0.10479       -0.86823
C          3.81517        0.28534       -5.61430
C          2.44399        2.09039       -6.25226
O          2.50422        0.81817       -5.62753
C          4.76234        1.04500       -4.68187
C          0.99995        2.54153       -6.40743
H          3.74245       -0.76213       -5.25878
H          4.23474        0.22202       -6.64361
H          2.97501        2.85812       -5.65217
H          2.86928        2.03568       -7.27941
H          0.52427        2.67203       -5.42003
H          0.97433        3.52072       -6.93316
H          0.42106        1.79740       -6.99031
H          4.32805        1.10624       -3.66266
H          5.73531        0.51352       -4.63215
H          4.96599        2.06823       -5.05987
C         -2.70501        6.27231        5.26961
C         -3.87588        6.95827        5.02754
C         -4.37143        6.51550        3.81510
C         -3.54700        5.58028        3.34637
N         -2.44805        5.38175        4.21347
C         -3.77142        4.80151        2.07865
N         -3.84320        3.34493        2.27362
C         -4.99130        2.81047        3.10596
H         -4.32517        7.69511        5.68032
H         -2.07960        6.38827        6.14498
H         -5.29400        6.83251        3.34641
H         -2.88979        5.00852        1.42517
H         -4.66126        5.16192        1.52942
C         -6.33544        3.19911        2.47632
C         -4.94208        1.26746        3.20390
C         -4.94048        3.27411        4.59133
H         -6.35940        2.86253        1.41821
H         -7.17930        2.72686        3.02350
H         -6.48678        4.29590        2.51233
H         -4.00475        0.93106        3.70192
H         -5.77515        0.88589        3.83894
H         -5.05564        0.78704        2.21353
H         -3.95175        3.03828        5.04466
H         -5.16994        4.33559        4.73595
H         -5.71939        2.76353        5.19864
