81
speciation616.ct
Na         1.93389       -0.64472       -0.03412
Mg         5.28079       -3.86602        3.31489
C          8.23120       -4.16293        2.58919
C          6.67048       -4.70203        0.91333
O          6.87473       -4.50022        2.29541
C          8.73940       -2.86592        1.93153
C          5.24244       -5.16191        0.70244
H          8.30989       -4.05479        3.68728
H          8.92086       -5.00120        2.32501
H          6.82315       -3.76384        0.33531
H          7.33780       -5.50821        0.52811
H          4.54958       -4.39451        1.08916
H          5.04809       -5.31973       -0.37889
H          5.06204       -6.10493        1.25752
H          7.98681       -2.05716        2.01680
H          9.67729       -2.53621        2.43150
H          8.98751       -3.02867        0.85867
H          5.11789       -6.39302        4.51698
C          3.35056       -5.69204        5.53260
C          4.76177       -5.42766        4.93887
C          2.32799       -6.13617        4.48041
H          3.41288       -6.50407        6.29737
H          2.97665       -4.78308        6.04990
H          2.65775       -7.08783        4.00879
H          1.34175       -6.32528        4.96665
C          2.15589       -5.06102        3.41905
H          5.42311       -5.19175        5.79967
H          1.77771       -4.12865        3.88931
H          3.13153       -4.85660        2.93726
H          1.44226       -5.40097        2.64253
C          3.69499       -1.45782        4.33792
C          3.10453       -0.26153        3.98792
C          3.32604       -0.08406        2.64805
C          4.05048       -1.18647        2.22185
N          4.28034       -2.04307        3.25739
C          4.52537       -1.40446        0.80586
N          4.04651       -0.34146       -0.10126
C          4.44799       -0.45241       -1.53006
H          2.57326        0.42891        4.64055
H          3.69285       -1.87579        5.33311
H          2.99656        0.75882        2.05435
H          4.10909       -2.36509        0.46144
H          5.63167       -1.44549        0.83598
C          3.76057       -1.64952       -2.22010
C          3.98839        0.83680       -2.23279
C          5.97428       -0.58993       -1.70414
H          2.65556       -1.57264       -2.14652
H          4.02690       -1.67051       -3.30074
H          4.08605       -2.61432       -1.78220
H          4.46509        1.73095       -1.77481
H          4.24609        0.82509       -3.31472
H          2.89025        0.94089       -2.13936
H          6.51012        0.25953       -1.23304
H          6.33948       -1.54327       -1.26924
H          6.23379       -0.61641       -2.78627
Mg         4.36988        1.54447        0.47110
C          5.56537        3.70996        2.07073
C          5.55452        5.06387        2.34305
C          4.59879        5.61723        1.52534
C          4.06912        4.57786        0.78389
N          4.65951        3.40708        1.12438
C          3.02308        4.75172       -0.27394
N          1.79553        3.99887        0.03441
C          0.69360        4.17977       -0.94935
H          6.17751        5.59176        3.05243
H          6.21225        2.98437        2.54319
H          4.32894        6.66514        1.46983
H          2.80484        5.83665       -0.32788
H          3.46885        4.41564       -1.22913
C          1.08532        3.61650       -2.33083
C         -0.53756        3.40332       -0.44215
C          0.28231        5.66302       -1.08872
H          1.34221        2.54367       -2.24249
H          0.24389        3.71111       -3.04896
H          1.94836        4.15589       -2.76936
H         -0.83151        3.75235        0.57106
H         -1.40510        3.55889       -1.12274
H         -0.33439        2.31230       -0.39222
H         -0.01303        6.07655       -0.10077
H          1.09153        6.28527       -1.51849
H         -0.57894        5.75968       -1.78430
