95
speciation1203.ct
Na         1.28283       -1.10362        0.08434
Mg         4.46730        0.35733        2.02901
C         -0.57368       -3.54497        0.53346
C         -1.55055       -2.16421       -1.09994
O         -0.75308       -2.21600        0.07470
C          0.22140       -4.43706       -0.43098
C         -1.71899       -0.72629       -1.56773
H         -0.00143       -3.48366        1.48249
H         -1.55021       -4.01101        0.79268
H         -1.10702       -2.72052       -1.94783
H         -2.56906       -2.54660       -0.86744
H         -0.76141       -0.35351       -1.95973
H         -2.43885       -0.68236       -2.41069
H         -2.08065       -0.07828       -0.74140
H          1.18522       -3.95513       -0.69768
H          0.42604       -5.41425        0.05336
H         -0.35222       -4.65504       -1.35568
H          3.91734        2.92589        2.48051
C          3.60759        2.79866        4.49597
C          3.54926        2.12180        3.13045
C          5.06873        3.07378        4.84011
H          3.04308        3.75715        4.46838
H          3.12182        2.19012        5.27057
H          5.62120        2.11163        4.77296
H          5.46960        3.79232        4.10414
C          5.23327        3.64027        6.23156
H          2.47164        1.91021        2.99777
H          4.68922        4.60389        6.30123
H          4.83029        2.92507        6.96927
H          6.31173        3.80620        6.41569
C          6.47587       -0.81388       -3.18543
C          6.06122       -2.10117       -3.41269
C          5.05937       -2.33982       -2.51543
C          4.88188       -1.18431       -1.76544
N          5.77512       -0.24462       -2.18502
C          3.76424       -1.15185       -0.72071
N          3.36261        0.03274        0.09420
C          2.79075        1.22769       -0.68640
H          6.44071       -2.78637       -4.15976
H          7.25263       -0.30590       -3.74032
H          4.48695       -3.25481       -2.42721
H          3.96225       -1.97578       -0.00673
H          2.87171       -1.47618       -1.29398
C          1.50898        0.88713       -1.47667
C          2.34071        2.33075        0.26170
C          3.74802        1.90291       -1.68340
H          0.69084        0.64938       -0.77636
H          1.13566        1.77921       -2.02824
H          1.66975        0.09672       -2.23029
H          3.23202        2.84287        0.64254
H          1.79204        3.15345       -0.25650
H          1.65754        1.93817        1.03867
H          4.62856        2.28926       -1.16783
H          3.98621        1.25411       -2.53695
H          3.26887        2.80311       -2.13522
Na         6.48939        1.75717       -1.96672
Mg         6.49267       -0.95709        0.58751
H          2.71380       -1.37189        3.09308
C          3.97085       -1.69697        4.79947
C          3.80889       -1.42920        3.27787
C          3.40325       -0.53427        5.61005
H          3.43101       -2.62711        5.07946
H          5.02936       -1.84445        5.07157
H          3.98189        0.33697        5.30144
H          2.31988       -0.40588        5.38283
C          3.57515       -0.66858        7.12307
H          4.19379       -2.32341        2.74282
H          3.05035       -1.56375        7.51538
H          4.65313       -0.72061        7.38400
H          3.14739        0.23324        7.61822
C          8.10046        4.74299        2.47646
C          8.98898        4.69626        1.42698
C          8.68569        3.56507        0.68403
C          7.64717        2.94284        1.25751
N          7.20457        3.66233        2.38610
C          7.02361        1.65472        0.74974
N          6.67474        0.60703        1.74177
C          7.80654        0.11779        2.60641
H          9.78147        5.41127        1.23654
H          8.08584        5.49537        3.25564
H          9.20574        3.24779       -0.21029
H          7.68072        1.22480       -0.03994
H          6.08341        1.93798        0.27735
C          8.40224        1.16967        3.57975
C          7.26266       -1.02211        3.45893
C          8.98270       -0.43496        1.76062
H          7.62987        1.64492        4.20486
H          9.13722        0.69510        4.26814
H          8.99551        1.94708        3.06438
H          6.87721       -1.84543        2.82114
H          8.04671       -1.43674        4.13179
H          6.45195       -0.61151        4.08504
H          8.63875       -1.20944        1.04430
H          9.49026        0.37533        1.19624
H          9.75780       -0.89509        2.41892
