95
speciation1844.ct
Na         0.92090       -0.03266       -0.05174
Mg        -2.11242       -0.09190       -1.92700
C         -2.51936       -1.38934       -4.38960
C         -2.66622        0.95601       -4.64131
O         -2.75908       -0.14965       -3.75514
C         -1.08187       -1.55225       -4.86713
C         -2.95408        2.26933       -3.92183
H         -2.71154       -2.17649       -3.63020
H         -3.24859       -1.57185       -5.20935
H         -1.66204        1.05308       -5.10292
H         -3.44774        0.85133       -5.42419
H         -2.10945        2.55918       -3.27884
H         -3.05349        3.09024       -4.66106
H         -3.88821        2.19611       -3.32607
H         -0.41309       -1.32732       -4.01805
H         -0.91294       -2.59452       -5.20851
H         -0.85450       -0.88023       -5.71988
H          5.64284        2.77767       -2.36297
C          4.73811        4.66793       -2.52833
C          4.72381        3.13717       -2.85580
C          6.15026        5.32197       -2.53763
H          4.09072        5.20474       -3.24160
H          4.33107        4.82946       -1.50934
H          6.76178        4.92436       -1.69616
H          6.68055        5.12073       -3.48918
C          6.05486        6.84061       -2.38432
H          5.02792        2.99601       -3.91490
H          5.50566        7.29430       -3.23803
H          5.53661        7.13700       -1.43770
H          7.07460        7.31225       -2.36068
C          1.85203        2.73465        0.73225
C          0.81173        3.21577        1.44817
C         -0.29167        2.93188        0.73670
C          0.10417        2.10196       -0.28969
N          1.44887        2.21271       -0.46787
C         -0.80952        1.07139       -0.96888
N         -1.44910       -0.03266       -0.05174
C         -2.50931        0.59874        0.85190
H          0.87929        3.69914        2.41555
H          2.80822        2.83540        1.15825
H         -1.26641        3.19217        1.02995
H         -0.21885        0.57290       -1.73934
H         -1.54022        1.64369       -1.53719
C         -3.39667        1.65665        0.09377
C         -3.54003       -0.42976        1.35397
C         -1.89192        1.14441        2.17688
H         -3.90893        1.17136       -0.77098
H         -4.18872        2.08612        0.74840
H         -2.88423        2.55898       -0.30004
H         -3.05859       -1.19731        1.99175
H         -4.28260        0.10461        2.00498
H         -4.09687       -0.91505        0.53360
H         -2.02675        0.49649        3.05661
H         -0.79149        1.14553        2.14560
H         -2.35565        2.11616        2.47720
Na         3.47754       -0.06828        2.08075
Mg         2.63465        1.61043       -2.28853
H          2.56067        1.80090       -4.88351
C          1.79811        3.79387       -4.69429
C          1.83157        2.32379       -4.22442
C          1.43640        3.99875       -6.18628
H          1.11418        4.38916       -4.05627
H          2.81646        4.20508       -4.59970
H          1.53347        5.08344       -6.42103
H          2.15430        3.45436       -6.84102
C          0.01250        3.57900       -6.54003
H          0.83311        1.86538       -4.34402
H         -0.11333        2.48598       -6.41676
H         -0.71513        4.12047       -5.90068
H         -0.19376        3.83520       -7.60276
C          2.12585       -1.20574       -3.76263
C          2.22027       -2.58560       -3.62081
C          2.62685       -2.86037       -2.36131
C          2.76042       -1.60760       -1.75113
N          2.47698       -0.58259       -2.60550
C          3.26438       -1.46102       -0.37588
N          3.29090       -0.03266       -0.05174
C          4.65243        0.58416       -0.40810
H          2.02024       -3.35299       -4.37950
H          1.87655       -0.70464       -4.67397
H          2.81800       -3.81224       -1.89363
H          4.25944       -1.94810       -0.30389
H          2.59913       -1.97743        0.33135
C          5.07757        0.29005       -1.88270
C          4.70533        2.10543       -0.12781
C          5.78739        0.06873        0.52243
H          4.40311        0.74391       -2.63136
H          6.09849        0.66848       -2.10787
H          5.13228       -0.78185       -2.12770
H          4.68802        2.33825        0.95170
H          5.68607        2.56578       -0.35223
H          3.91458        2.65507       -0.66403
H          5.71222        0.50600        1.54210
H          5.84835       -1.01517        0.64357
H          6.77126        0.42071        0.11756
