96
speciation1065.ct
Na         1.18519        0.03020       -0.21103
Mg        -0.25123        2.51435        2.10700
C          0.41292       -1.16681       -3.16663
C         -1.61891       -0.71002       -2.17092
O         -0.19696       -0.65392       -1.98938
C          1.78553       -0.63653       -3.24488
C         -2.18542       -2.11956       -1.98864
H          0.45861       -2.27555       -3.14275
H         -0.06757       -0.81380       -4.11035
H         -2.12584        0.01997       -1.52189
H         -1.92894       -0.35981       -3.17987
H         -2.02663       -2.47572       -0.95398
H         -3.27492       -2.11131       -2.21582
H         -1.71578       -2.83137       -2.70239
H          2.27293       -1.00710       -2.33034
H          2.32458       -1.00497       -4.14173
H          1.70717        0.47270       -3.28140
H          0.29444        2.89409        4.92973
C          0.25108        4.92219        4.46529
C          0.60971        3.48641        4.05355
C          0.82203        5.25661        5.86493
H          0.64695        5.63857        3.72567
H         -0.85514        5.01631        4.50314
H          0.39279        4.55875        6.61934
H          1.92790        5.13718        5.86889
C          0.48615        6.68347        6.29339
H          1.71416        3.40077        4.03770
H          0.95361        7.41379        5.60005
H         -0.61353        6.83771        6.30436
H          0.87796        6.86887        7.31743
C         -3.13875        3.32182        2.48673
C         -4.30341        2.60718        2.27799
C         -3.92128        1.33140        1.89992
C         -2.53676        1.32612        1.88358
N         -2.08042        2.53017        2.24852
C         -1.62763        0.16004        1.53970
N         -0.16952        0.44962        1.74461
C          0.36570       -0.27434        2.94039
H         -5.31369        2.97741        2.38270
H         -3.07258        4.36897        2.76074
H         -4.57973        0.51010        1.64871
H         -1.80117       -0.14779        0.50901
H         -1.99333       -0.68075        2.15419
C          0.26857       -1.82308        2.84622
C          1.84167        0.06267        3.01186
C         -0.35409        0.15046        4.23371
H          0.73263       -2.20485        1.91328
H          0.78571       -2.28843        3.71566
H         -0.77014       -2.20632        2.89567
H          2.00243        1.15687        3.05602
H          2.33712       -0.40960        3.88637
H          2.29345       -0.35907        2.09506
H         -0.52302        1.22032        4.21212
H         -1.36836       -0.28217        4.31836
H          0.22410       -0.13967        5.13806
Mg         0.00315        1.87877       -0.74471
C          4.49318        0.45577        0.76985
C          4.23803        0.45109       -1.56172
O          3.55576        0.53550       -0.31552
C          5.68079        1.44921        0.72158
C          4.82071       -0.94762       -1.81664
H          3.99075        0.74937        1.69808
H          4.87342       -0.58251        0.88311
H          3.53916        0.75866       -2.33023
H          4.98188        1.25310       -1.74147
H          4.17678       -1.72901       -1.35900
H          4.90276       -1.13978       -2.90686
H          5.83172       -1.02517       -1.36476
H          5.33519        2.49593        0.65068
H          6.27808        1.35235        1.65295
H          6.38024        1.24775       -0.11428
C         -1.23278        2.29776       -3.51010
C         -1.98189        3.38641       -3.90184
C         -2.04547        4.24318       -2.81713
C         -1.31948        3.63305       -1.80709
N         -0.83930        2.46427       -2.23777
C         -1.05452        4.16608       -0.39611
N          0.06296        3.46140        0.32084
C          1.41695        4.00906        0.07763
H         -2.43280        3.54174       -4.87853
H         -0.98475        1.44783       -4.12662
H         -2.54509        5.19831       -2.77756
H         -2.00065        4.05680        0.15876
H         -0.87986        5.25864       -0.44937
C          1.56912        5.46389        0.57157
C          2.38445        3.16065        0.87438
C          1.81393        3.92668       -1.41416
H          1.29350        5.52881        1.63823
H          2.62068        5.80583        0.46534
H          0.95162        6.18670        0.00435
H          2.23361        2.11279        0.59922
H          3.42527        3.49473        0.69849
H          2.18513        3.24090        1.94703
H          1.76363        2.87662       -1.78181
H          1.16450        4.56297       -2.04812
H          2.85992        4.27978       -1.56522
