95
speciation1823.ct
Na         1.31057        1.88877       -0.01813
Mg         6.64541       -3.84715       -2.34507
C          7.17956       -6.51761       -2.20837
C          6.08786       -6.12026       -4.24907
O          6.29554       -5.66602       -2.92203
C          8.60748       -6.58111       -2.77273
C          5.07790       -5.24884       -4.97003
H          7.25140       -6.11346       -1.17641
H          6.74657       -7.53649       -2.10354
H          7.01906       -6.11043       -4.85212
H          5.65993       -7.14887       -4.21922
H          5.50743       -4.23984       -5.12361
H          4.85652       -5.69640       -5.96413
H          4.13428       -5.18098       -4.39001
H          9.04145       -5.56272       -2.85400
H          9.24236       -7.18794       -2.09303
H          8.63748       -7.07899       -3.76339
H          8.35116        1.12138       -3.34438
C          8.98378        2.76745       -4.52840
C          8.02752        1.60940       -4.28186
C          8.82690        3.87014       -3.48134
H         10.02622        2.37320       -4.50032
H          8.78749        3.18223       -5.53827
H          7.79516        4.26915       -3.52733
H          9.00629        3.46920       -2.45968
C          9.81000        5.00626       -3.75238
H          8.17281        0.86176       -5.08857
H         10.85524        4.64130       -3.65625
H          9.66027        5.40927       -4.77722
H          9.64878        5.82554       -3.02139
C         -1.76157        1.12039        0.03128
C         -2.39762       -0.10621        0.02633
C         -1.40531       -1.06968        0.01583
C         -0.20668       -0.39079        0.00444
N         -0.43273        0.92947        0.00270
C          1.18284       -1.00889       -0.01538
N          2.24500        0.03300       -0.00400
C          3.17100        0.03582        1.14944
H         -3.46068       -0.27859        0.05717
H         -2.24101        2.08402        0.05020
H         -1.53818       -2.14410        0.01415
H          1.29376       -1.61657       -0.93768
H          1.25812       -1.69419        0.84519
C          3.99008       -1.27170        1.20925
C          4.14972        1.20687        0.94650
C          2.41311        0.26898        2.47367
H          4.54224       -1.42623        0.25769
H          4.72933       -1.22755        2.03881
H          3.34978       -2.15828        1.38694
H          3.60511        2.17403        0.89926
H          4.88534        1.26067        1.77857
H          4.70875        1.08639       -0.00277
H          1.84024        1.22026        2.42755
H          1.70390       -0.55146        2.69995
H          3.12826        0.33484        3.32247
Na         3.59933        0.09296       -1.94799
Mg         5.89717        1.92323       -4.11769
H          5.78544        4.65776       -4.52298
C          3.66573        4.28820       -4.23233
C          5.05575        3.86197       -4.75960
C          3.58800        4.35485       -2.70638
H          3.38571        5.27480       -4.66498
H          2.88372        3.57823       -4.55937
H          2.53810        4.59155       -2.42214
H          3.84874        3.36388       -2.27577
C          4.48779        5.43924       -2.12247
H          4.99733        3.82115       -5.86954
H          5.55411        5.22973       -2.33942
H          4.21162        6.42941       -2.54503
H          4.35662        5.47149       -1.02172
C          7.62245       -1.62066       -0.61409
C          7.54870       -0.25178       -0.44970
C          6.84691        0.23509       -1.53475
C          6.55562       -0.86477       -2.31790
N          7.00430       -1.98139       -1.75324
C          5.83130       -0.97564       -3.58194
N          4.95365        0.15292       -3.89199
C          4.29264       -0.09169       -5.23442
H          7.94109        0.31928        0.38130
H          8.06846       -2.31996        0.08038
H          6.58955        1.26888       -1.72514
H          5.20079       -1.87276       -3.43144
H          6.58762       -1.18317       -4.36159
C          3.59204       -1.47449       -5.34261
C          3.19656        0.94441       -5.49275
C          5.32062        0.05843       -6.39250
H          2.82432       -1.58531       -4.54756
H          3.09109       -1.58257       -6.32971
H          4.30121       -2.31901       -5.29469
H          3.64874        1.92959       -5.59946
H          2.69189        0.74784       -6.46699
H          2.42734        0.93957       -4.69335
H          5.77339        1.07387       -6.37937
H          6.14120       -0.68215       -6.35915
H          4.82571       -0.08018       -7.37835
