80
speciation949.ct
Na         5.16116        2.17440        3.27598
Mg         2.24475        4.53165       -1.17957
H          2.39000        7.13040       -1.58134
C          1.21014        6.87655        0.23805
C          1.59708        6.46610       -1.17665
C          2.40384        6.77601        1.19071
H          0.82904        7.92101        0.21973
H          0.39800        6.20376        0.58958
H          2.78472        5.73121        1.20615
H          3.21768        7.44892        0.84292
C          2.00163        7.17897        2.60796
H          0.70336        6.52830       -1.83268
H          1.62909        8.22582        2.62118
H          1.20447        6.50548        2.98941
H          2.88075        7.10658        3.28206
C          6.54389        4.08335        1.28777
C          6.49275        4.63827        0.03152
C          5.39122        4.10000       -0.60342
C          4.79601        3.25389        0.30913
N          5.49787        3.25633        1.46471
C          3.54971        2.42386        0.12133
N          2.87655        2.64461       -1.18242
C          1.62881        1.86425       -1.37667
H          7.19857        5.34642       -0.39274
H          7.28518        4.29393        2.05127
H          5.05545        4.33034       -1.60360
H          3.85441        1.36501        0.23972
H          2.87401        2.71160        0.95066
C          0.58050        2.17649       -0.28152
C          1.03245        2.27740       -2.73225
C          1.91340        0.34762       -1.41392
H          0.37223        3.26685       -0.24377
H         -0.37248        1.64444       -0.48944
H          0.91058        1.84152        0.72276
H          1.73867        2.05253       -3.55822
H          0.08434        1.72765       -2.92784
H          0.81007        3.36611       -2.74560
H          2.66571        0.11346       -2.19699
H          2.28539       -0.02553       -0.43816
H          0.98260       -0.21586       -1.64083
Na         4.18654        2.25302       -3.11826
Mg         9.00499        2.80683       -7.50589
H         11.27361        2.50801       -6.32816
C         11.88715        2.57685       -8.39138
C         10.91753        2.12522       -7.30789
C         11.48266        2.03791       -9.76379
H         11.91808        3.68773       -8.40813
H         12.89999        2.19484       -8.13441
H         11.46376        0.92691       -9.72810
H         10.46946        2.40599      -10.03660
C         12.48255        2.47574      -10.83127
H         10.87591        1.01615       -7.25827
H         12.48096        3.58213      -10.93121
H         13.50668        2.13722      -10.56265
H         12.20725        2.02683      -11.80832
C          6.58310        4.00222       -8.80328
C          5.26992        4.34519       -8.56416
C          5.00991        4.00361       -7.24649
C          6.18522        3.47510       -6.75538
N          7.13932        3.47174       -7.69904
C          6.41056        2.96554       -5.37605
N          5.49654        1.86143       -5.05410
C          5.77314        0.49289       -5.53121
H          4.57299        4.78707       -9.25999
H          7.10699        4.13448       -9.74120
H          4.07728        4.13095       -6.71621
H          6.20426        3.80157       -4.67518
H          7.47059        2.67694       -5.23464
C          7.21442        0.09207       -5.14398
C          4.78050       -0.45635       -4.83435
C          5.50510        0.36495       -7.05464
H          7.31941       -1.00257       -5.00073
H          7.48330        0.57033       -4.17677
H          7.93631        0.43146       -5.91418
H          3.73130       -0.21442       -5.11938
H          4.97376       -1.50563       -5.15157
H          4.87047       -0.39501       -3.73172
H          4.43790        0.59710       -7.28134
H          6.12319        1.05232       -7.65945
H          5.71268       -0.66408       -7.41597
