96
speciation1304.ct
Na         3.91700        0.04206       -7.26705
Mg         2.23863        1.27012       -1.71011
C          3.47021        1.83218       -9.83176
C          3.23139       -0.40998      -10.31604
O          3.94047        0.53162       -9.53469
C          4.20840        2.86268       -8.99068
C          3.70999       -1.81894      -10.00018
H          3.68818        2.07389      -10.89788
H          2.37807        1.92903       -9.63583
H          2.13460       -0.35579      -10.13004
H          3.44318       -0.23463      -11.39627
H          3.47145       -2.07915       -8.94803
H          3.19874       -2.54075      -10.67353
H          4.80601       -1.89789      -10.16136
H          5.30374        2.77822       -9.15389
H          3.88250        3.88277       -9.28904
H          3.98164        2.71490       -7.91432
H          2.91145        1.34940        1.29856
C          2.09822        3.33891        1.01959
C          2.93029        2.12907        0.50355
C          2.56998        4.22903        2.20871
H          2.11372        4.01384        0.20236
H          1.05479        3.01420        1.19221
H          2.59372        3.68688        3.17786
H          3.58787        4.63417        2.00731
C          1.62128        5.44920        2.35794
H          3.99480        2.44716        0.41022
H          1.52395        5.99860        1.39722
H          0.60427        5.12704        2.66881
H          1.99542        6.17984        3.10916
C          1.51549       -1.70448       -1.46469
C          1.33657       -2.94942       -2.06468
C          1.67981       -2.78672       -3.37681
C          2.07830       -1.47603       -3.52947
N          1.96390       -0.78097       -2.34738
C          2.52622       -0.98600       -4.89256
N          3.89303       -0.45805       -4.95054
C          5.08190       -1.30842       -4.79464
H          0.97362       -3.84965       -1.60809
H          1.30573       -1.49659       -0.42997
H          1.64916       -3.54902       -4.14786
H          1.84036       -0.17911       -5.21302
H          2.42502       -1.78682       -5.65567
C          5.32030       -2.18497       -6.04881
C          6.25233       -0.30777       -4.61901
C          4.96773       -2.25054       -3.58313
H          5.49880       -1.57003       -6.95610
H          6.21105       -2.83404       -5.90612
H          4.44800       -2.84238       -6.25012
H          5.87222        0.67806       -4.26012
H          7.00765       -0.64202       -3.88128
H          6.74303       -0.07845       -5.59081
H          4.72394       -1.70095       -2.65309
H          4.19770       -3.02258       -3.78263
H          5.91268       -2.81570       -3.43912
Mg         5.21240        6.31710       -2.64024
C          7.57904        5.70752       -1.36912
C          6.73999        7.78480       -0.66183
O          6.83950        6.86113       -1.73458
C          6.93196        4.86563       -0.25850
C          5.91835        8.99187       -1.07449
H          7.64820        5.06991       -2.27494
H          8.62534        5.97709       -1.10312
H          6.24092        7.35865        0.23244
H          7.75556        8.15691       -0.40308
H          4.87165        8.68197       -1.19533
H          5.93914        9.75879       -0.27216
H          6.30444        9.43458       -2.01672
H          5.88278        4.61645       -0.52211
H          7.50648        3.92503       -0.12804
H          6.95557        5.38752        0.72018
C          0.90072        2.09832       -4.25662
C          0.88035        2.91694       -5.37181
C          1.92819        3.79269       -5.22612
C          2.52524        3.50208       -4.00144
N          1.91854        2.45410       -3.40367
C          3.68986        4.28282       -3.46808
N          3.54338        5.75906       -3.56924
C          2.35659        6.41892       -2.90476
H          0.16982        2.87385       -6.20242
H          0.20103        1.29717       -4.06826
H          2.19624        4.57284       -5.93271
H          3.90160        3.95081       -2.43738
H          4.56758        4.00554       -4.08632
C          2.31438        6.05379       -1.43898
C          2.47377        7.94414       -3.03424
C          0.96778        6.06392       -3.51083
H          3.27264        6.26604       -0.92063
H          1.47933        6.56122       -0.90937
H          2.09985        4.98412       -1.46978
H          2.42194        8.25803       -4.09614
H          1.63777        8.44374       -2.48786
H          3.41308        8.31023       -2.61449
H          0.91838        6.30903       -4.59080
H          0.66854        5.01377       -3.33700
H          0.16606        6.64194       -2.99873
