83
speciation322.ct
Na         0.91859       -0.29977       -0.03127
Mg        -1.89995        3.86153       -0.09222
C          0.99077        1.73510        2.31609
C         -0.09888       -0.24275        2.98134
O          0.43347        0.49716        1.89819
C          2.22377        1.58583        3.21720
C         -0.75682       -1.51373        2.47477
H          1.31149        2.26492        1.40430
H          0.22393        2.38628        2.79669
H          0.69904       -0.55483        3.68757
H         -0.88313        0.34842        3.50905
H         -0.00544       -2.14336        1.95371
H         -1.17276       -2.07981        3.33519
H         -1.58884       -1.27442        1.78519
H          2.95770        0.90092        2.75670
H          2.70111        2.57727        3.36595
H          1.95139        1.19414        4.21793
C          1.01959        2.12951       -5.39858
C          1.49771        1.09305       -6.17668
C          1.38478       -0.05489       -5.41836
C          0.83577        0.33951       -4.21570
N          0.62797        1.65527       -4.20311
C          0.52305       -0.55550       -3.05409
N         -0.12802        0.17992       -1.93543
C         -1.57888       -0.08940       -1.75318
H          1.88546        1.17225       -7.18230
H          0.97226        3.16344       -5.70355
H          1.66569       -1.05418       -5.71414
H          1.49654       -0.94235       -2.70746
H         -0.07985       -1.40522       -3.41751
C         -1.87467       -1.57244       -1.42379
C         -2.05086        0.76951       -0.57152
C         -2.38436        0.31940       -3.00264
H         -1.28455       -1.91055       -0.54931
H         -2.95548       -1.70317       -1.19402
H         -1.66274       -2.24982       -2.27436
H         -1.86718        1.84225       -0.77217
H         -3.13562        0.62903       -0.37577
H         -1.49776        0.49859        0.34369
H         -2.18456        1.37037       -3.25534
H         -2.12050       -0.29887       -3.88443
H         -3.47615        0.21387       -2.82159
Na        -0.17103        2.30524       -2.42028
C          3.89762       -0.54160        0.08046
C          2.97258       -2.49140       -0.86389
O          2.73020       -1.32374       -0.09817
C          4.42637        0.10396       -1.20280
C          1.70525       -3.32851       -0.97567
H          3.63294        0.28181        0.76577
H          4.69150       -1.12540        0.59810
H          3.30823       -2.25380       -1.89534
H          3.72964       -3.12438       -0.34925
H          0.92168       -2.79081       -1.54023
H          1.93400       -4.26937       -1.52129
H          1.31270       -3.57442        0.03045
H          3.62335        0.68875       -1.69693
H          5.26417        0.78720       -0.94551
H          4.82697       -0.65469       -1.90480
C          0.85520        7.72401        0.96710
C         -0.10588        7.04691        1.68608
C         -0.25093        5.79684        1.11155
C          0.58323        5.72091        0.07450
N          1.33153        6.90882       -0.07208
C          0.71472        4.54906       -0.84912
N         -0.56469        4.18184       -1.47897
C         -1.14244        5.08952       -2.50486
H         -0.64875        7.43620        2.53640
H          1.19398        8.73182        1.16012
H         -0.93551        5.02541        1.43437
H          1.05278        3.68646       -0.24978
H          1.50270        4.72114       -1.60830
C         -0.13304        5.40309       -3.62387
C         -2.34222        4.36175       -3.13152
C         -1.66698        6.40289       -1.89396
H          0.24057        4.45977       -4.05761
H         -0.61236        5.99862       -4.42990
H          0.73171        5.98635       -3.24899
H         -3.07768        4.06814       -2.35068
H         -2.85659        5.00371       -3.87837
H         -1.99952        3.45802       -3.66517
H         -2.38571        6.19162       -1.07377
H         -0.85028        7.04052       -1.51442
H         -2.18416        7.00667       -2.67010
