83
speciation587.ct
Na         2.66806       -2.62293       -0.12476
Mg         5.83899       -2.08866       -0.72376
C          0.87643       -4.80099       -1.25564
C          3.11623       -5.43473       -0.77022
O          2.23049       -4.39027       -1.11986
C          0.32444       -5.67267       -0.12714
C          3.24720       -6.46370       -1.89750
H          0.24122       -3.90229       -1.27036
H          0.73447       -5.28343       -2.24577
H          4.10012       -4.97847       -0.61175
H          2.87752       -5.90761        0.20431
H          3.45490       -5.94427       -2.85319
H          4.06862       -7.17551       -1.66809
H          2.31072       -7.03719       -2.02000
H          0.46632       -5.16331        0.84774
H         -0.75843       -5.83591       -0.30241
H          0.80938       -6.67001       -0.11249
C          4.20065       -2.62848        2.66619
C          4.54621       -1.66978        3.59935
C          4.08369       -0.46083        3.11329
C          3.48059       -0.74093        1.90240
N          3.54536       -2.05214        1.64427
C          2.81585        0.23413        0.97709
N          2.30636       -0.46129       -0.23971
C          0.83398       -0.45053       -0.40714
H          5.07508       -1.83512        4.52893
H          4.41198       -3.68774        2.73095
H          4.17895        0.50581        3.59116
H          3.54944        1.00933        0.67092
H          2.02059        0.73473        1.56198
C          0.21784        0.96866       -0.44485
C          0.57005       -1.10685       -1.76243
C          0.15995       -1.27840        0.70976
H          0.67557        1.57122       -1.25006
H         -0.87388        0.90242       -0.64571
H          0.32758        1.51896        0.50964
H          1.09307       -2.07190       -1.83101
H         -0.51476       -1.23487       -1.95690
H          1.00586       -0.49055       -2.56176
H          0.57846       -2.30420        0.75678
H          0.29905       -0.80524        1.70490
H         -0.93300       -1.36258        0.52800
Na         3.35862        0.00132       -2.13993
C          3.48250        2.89389       -3.17051
C          1.66250        1.70938       -4.14495
O          2.94415        1.62138       -3.52747
C          2.61023        3.73578       -2.23413
C          1.68859        2.40101       -5.51516
H          4.43213        2.73248       -2.64454
H          3.78575        3.46665       -4.07112
H          1.29632        0.68532       -4.34664
H          0.91622        2.18509       -3.47976
H          2.31535        1.82350       -6.22651
H          0.65385        2.45658       -5.91629
H          2.06621        3.44103       -5.45338
H          2.35314        3.15471       -1.32632
H          3.17327        4.64113       -1.92548
H          1.68852        4.08643       -2.74160
C          6.86776       -4.97052       -0.94687
C          6.65326       -5.83739       -2.00473
C          5.91563       -5.14391       -2.94565
C          5.70481       -3.88441       -2.41937
N          6.28572       -3.78520       -1.21171
C          4.88281       -2.74163       -3.03218
N          5.10438       -1.42729       -2.34445
C          6.20304       -0.60832       -2.91413
H          6.97832       -6.86694       -2.07729
H          7.39329       -5.20571       -0.03031
H          5.55375       -5.52062       -3.89499
H          3.81609       -3.02800       -2.93478
H          5.08256       -2.68582       -4.11586
C          5.84074       -0.12829       -4.33926
C          6.36817        0.59202       -1.98344
C          7.55397       -1.35919       -2.95324
H          4.84247        0.34283       -4.35425
H          6.58821        0.60332       -4.70832
H          5.83224       -0.95687       -5.07591
H          6.69158        0.26429       -0.97302
H          7.10963        1.31566       -2.38437
H          5.40078        1.09072       -1.84338
H          7.85124       -1.68455       -1.93322
H          7.51666       -2.24757       -3.61574
H          8.35076       -0.68851       -3.34240
