110
speciation2004.ct
Na         1.02237       -0.29045       -0.73342
Mg         1.51228        4.54305       -0.47773
C          1.85375       -3.40144        0.40002
C         -0.31621       -2.65470        0.68051
O          0.95661       -2.32541        0.17798
C          3.27282       -2.90551        0.47332
C         -0.82680       -1.41976        1.31655
H          1.69595       -3.87719        1.39862
H          1.74130       -4.16944       -0.39755
H         -0.95477       -3.02184       -0.14936
H         -0.33907       -3.40725        1.50115
H         -0.76439       -0.65655        0.53680
H         -1.86533       -1.58687        1.68708
H         -0.19881       -1.09073        2.15071
H          3.34818       -2.11772        1.25392
H          3.93617       -3.75258        0.74133
H          3.57138       -2.51153       -0.51113
H          1.07485        4.80192       -2.95823
C          1.25925        6.83798       -2.52708
C          0.73039        5.44513       -2.13196
C          0.83667        8.00223       -1.61595
H          2.36653        6.81819       -2.62859
H          0.82953        7.05673       -3.53151
H          1.10126        8.95120       -2.13092
H         -0.26937        7.99874       -1.46768
C          1.54942        8.02062       -0.26917
H         -0.37436        5.50513       -2.25695
H          1.23074        8.92202        0.29905
H          2.64812        8.08999       -0.42705
H          1.31233        7.11540        0.32362
C          3.49469        3.83308        1.68143
C          3.70247        2.90764        2.69013
C          2.56463        2.12381        2.75327
C          1.69870        2.59468        1.78119
N          2.27501        3.66308        1.13596
C          0.30916        1.96173        1.53796
N         -0.14040        1.63761        0.12641
C          0.24025        2.70408       -0.81923
H          4.58772        2.79593        3.29107
H          4.21570        4.56228        1.33994
H          2.38932        1.30342        3.42884
H         -0.43396        2.59094        2.06436
H          0.20288        1.06586        2.16461
C          1.81205        2.56004       -1.15869
C         -0.24084        2.38162       -2.24682
C         -0.62332        3.96315       -0.26914
H          1.95694        1.53504       -1.36832
H          2.14647        3.16954       -2.01852
H          2.75402        2.57613       -0.60607
H         -1.16123        2.88187       -2.50463
H          0.35715        2.80542       -3.08629
H         -0.21595        1.29241       -2.39578
H         -1.66819        3.92154       -0.64477
H         -0.77790        4.03216        0.80068
H         -0.30947        4.99967       -0.21663
Na        -6.34762       -2.66154        1.57120
Mg        -2.37857        1.92617        0.17705
C          1.79440        0.05311       -3.94685
C          3.60878       -0.45055       -2.44922
O          2.22425       -0.16343       -2.60071
C          1.95025       -1.20496       -4.78845
C          4.59520        0.60869       -2.98146
H          0.71657        0.29113       -3.95776
H          2.27853        0.94237       -4.41411
H          3.81758       -0.50642       -1.36458
H          3.83244       -1.44816       -2.86835
H          4.53099        1.55456       -2.40291
H          5.63134        0.21127       -2.86244
H          4.46505        0.82124       -4.05908
H          1.44214       -2.03818       -4.26111
H          1.48882       -1.05050       -5.78486
H          3.01931       -1.45018       -4.93751
H         -3.17212        2.66729       -2.61358
C         -4.26893        0.85555       -2.76593
C         -3.23269        1.72328       -2.03842
C         -3.72034        0.36528       -4.13358
H         -4.51217       -0.03887       -2.18914
H         -5.21096        1.41755       -2.88241
H         -3.57477        1.22891       -4.81499
H         -2.73497       -0.14528       -4.01392
C         -4.65871       -0.66136       -4.75911
H         -2.33019        1.12004       -2.20588
H         -4.68419       -1.57593       -4.12694
H         -5.67989       -0.24223       -4.84532
H         -4.28520       -0.94916       -5.76521
C         -4.12232       -2.42232       -0.53486
C         -3.08305       -1.66102       -0.98727
C         -3.09698       -0.53240       -0.23068
C         -4.14501       -0.59954        0.64364
N         -4.76695       -1.78221        0.47560
C         -4.41838        0.40491        1.76011
N         -4.15993        1.81875        1.41678
C         -4.59204        2.73493        2.54114
H         -2.35387       -1.87907       -1.75512
H         -4.36133       -3.41182       -0.88462
H         -2.38939        0.22770       -0.29733
H         -3.74846        0.08635        2.57436
H         -5.45807        0.19655        2.05065
C         -3.78842        2.47607        3.83958
C         -4.39678        4.22468        2.18580
C         -6.11178        2.57576        2.85973
H         -2.70194        2.61391        3.66226
H         -4.10063        3.17977        4.64809
H         -3.96331        1.45250        4.23419
H         -4.96901        4.50949        1.27612
H         -3.32851        4.49134        2.05538
H         -4.78416        4.87167        3.01501
H         -6.72241        2.75362        1.94721
H         -6.37950        1.58709        3.28420
H         -6.43999        3.30099        3.63712
