95
speciation1645.ct
Na         3.16634        0.41306        3.12246
Mg         2.27662        4.31854       -0.62419
C         -0.01359        4.01988       -1.67127
C         -0.70071        5.80410       -0.38117
O          0.34318        4.87151       -0.65275
C         -0.29477        4.62870       -3.03717
C         -2.01761        5.14274        0.06042
H          0.91327        3.54856       -1.82705
H         -0.73522        3.22885       -1.37559
H         -0.43255        6.43451        0.47115
H         -0.86048        6.47675       -1.25239
H         -1.86501        4.59002        1.01074
H         -2.78883        5.92340        0.21240
H         -2.42110        4.44335       -0.70136
H          0.53999        5.29952       -3.33134
H         -0.36159        3.78054       -3.73817
H         -1.26832        5.15955       -3.05773
H          3.85451        6.63098       -0.44724
C          2.33925        7.40317        0.78165
C          2.75988        6.51306       -0.40523
C          2.90538        6.89708        2.10800
H          2.71035        8.43770        0.61079
H          1.25355        7.49136        0.86805
H          4.01671        6.90740        2.06248
H          2.58463        7.58084        2.92486
C          2.42211        5.48396        2.42445
H          2.34714        6.96275       -1.33347
H          1.31415        5.46348        2.49857
H          2.74625        4.77875        1.63136
H          2.85786        5.14896        3.38840
C          5.09802       -1.08556        1.25086
C          5.82201       -1.03517        0.07767
C          5.61604        0.22210       -0.44675
C          4.76008        0.87133        0.40252
N          4.45694        0.08414        1.45556
C          4.17588        2.23538        0.17464
N          3.34594        2.36674       -1.05963
C          2.21576        1.37584       -1.18341
H          6.42012       -1.82920       -0.35017
H          5.01669       -1.94716        1.90488
H          5.99799        0.62796       -1.35475
H          3.55776        2.50540        1.05580
H          5.01416        2.95180        0.14265
C          1.18874        1.66389       -0.04871
C          1.72645        1.46359       -2.66471
C          2.51225       -0.14689       -1.05801
H          1.02747        2.72716        0.16539
H          0.22367        1.14243       -0.20909
H          1.59146        1.30892        0.92703
H          2.43345        0.91539       -3.32255
H          0.71895        1.00867       -2.78414
H          1.77428        2.44426       -3.16037
H          3.34508       -0.46678       -1.71542
H          2.67638       -0.48836       -0.02483
H          1.60864       -0.72746       -1.35844
Na         1.70105        0.58248       -5.63283
Mg         4.21460        2.41850       -3.04315
H          4.86053        4.86389       -4.01310
C          5.33640        5.06383       -1.96255
C          4.43075        4.53380       -3.05196
C          6.71496        4.43136       -2.06651
H          5.41500        6.17176       -2.05153
H          4.89238        4.80707       -0.98632
H          6.60754        3.32817       -1.98894
H          7.17360        4.68508       -3.04751
C          7.61536        4.92853       -0.94324
H          3.42010        4.98672       -2.94318
H          7.77666        6.02417       -1.03357
H          7.15486        4.70906        0.04473
H          8.59445        4.41200       -1.00455
C          1.38112        3.69935       -5.83921
C          2.08694        4.87326       -5.99064
C          3.40600        4.51925       -6.07447
C          3.45484        3.15070       -5.94751
N          2.21712        2.64382       -5.80847
C          4.69148        2.33358       -6.05428
N          4.98459        1.49099       -4.86820
C          6.09548        0.50900       -5.18190
H          1.68355        5.87561       -6.04897
H          0.30915        3.61542       -5.78071
H          4.24078        5.19063       -6.22548
H          5.53918        3.02381       -6.24948
H          4.50885        1.72074       -6.95296
C          7.40879        1.21354       -5.62372
C          6.42545       -0.33966       -3.95076
C          5.68643       -0.49051       -6.30695
H          7.76307        1.91764       -4.84299
H          7.29242        1.76276       -6.57969
H          8.21272        0.46279       -5.80588
H          5.52027       -0.84546       -3.55627
H          6.90345        0.29063       -3.18626
H          7.17429       -1.12571       -4.20646
H          4.74668       -1.01825       -6.04468
H          5.57060       -0.01740       -7.30259
H          6.48100       -1.25365       -6.46293
