110
speciation1932.ct
Na        -4.37264        5.94677        0.35969
Mg        -3.20039        0.15513        2.76849
C         -6.61769        7.49600        1.99288
C         -5.33953        6.26123        3.45543
O         -5.37892        6.80330        2.14416
C         -6.63019        8.84780        2.76719
C         -4.11901        5.41386        3.65291
H         -6.76029        7.70894        0.92141
H         -7.51887        6.89028        2.27809
H         -5.23434        7.08659        4.19510
H         -6.24433        5.64431        3.69715
H         -3.21279        6.00666        3.42217
H         -4.09756        5.09669        4.71214
H         -4.18879        4.53996        2.98340
H         -5.70249        9.41287        2.54407
H         -7.50964        9.45610        2.49128
H         -6.67381        8.68167        3.86259
H         -2.84352       -0.02445        5.52474
C         -1.59955        1.68568        5.12831
C         -2.17985        0.32237        4.71567
C         -2.65658        2.78837        5.26517
H         -1.06278        1.59008        6.09869
H         -0.85262        2.00133        4.37026
H         -2.13415        3.74027        5.51142
H         -3.18239        2.90952        4.30060
C         -3.68393        2.52087        6.36544
H         -1.34179       -0.40296        4.68971
H         -4.29914        1.63631        6.11929
H         -3.17803        2.36427        7.34139
H         -4.37073        3.38834        6.45791
C         -1.44891        5.35553       -0.53436
C         -0.25090        4.67751       -0.50182
C         -0.46738        3.56405        0.24860
C         -1.81925        3.54671        0.60288
N         -2.40024        4.71007        0.16433
C         -2.44683        2.44254        1.41929
N         -2.59126        1.01490        0.92459
C         -1.40061        0.25712        0.45529
H          0.69415        4.95845       -0.94542
H         -1.58146        6.30979       -1.03165
H          0.29377        2.85856        0.52848
H         -1.87327        2.39692        2.36782
H         -3.47819        2.76347        1.71602
C         -0.32993        0.16238        1.55690
C         -1.89328       -1.14822        0.17831
C         -0.81052        0.72519       -0.91121
H         -0.78669       -0.26437        2.47887
H          0.50096       -0.50946        1.25654
H          0.09961        1.13921        1.83419
H         -2.57073       -1.12029       -0.69900
H         -1.06168       -1.83247       -0.09288
H         -2.42026       -1.53993        1.07052
H         -1.61456        1.03816       -1.61192
H         -0.04214        1.49097       -0.89309
H         -0.23065       -0.09187       -1.39189
Na        -4.35586       -0.24973       -0.03218
Mg        -6.13939       -3.10398        1.54028
C         -5.55975        6.47621       -2.39777
C         -4.79652        8.45497       -1.52542
O         -5.25155        7.14986       -1.19658
C         -6.09200        5.09717       -2.11117
C         -4.55259        9.29453       -0.28930
H         -6.38531        7.01303       -2.93353
H         -4.67194        6.38722       -3.06407
H         -3.86286        8.42110       -2.12975
H         -5.59393        8.99876       -2.09752
H         -3.75212        8.84590        0.34138
H         -4.28399       10.33015       -0.59620
H         -5.49232        9.39964        0.26967
H         -6.98113        5.15026       -1.44638
H         -6.39600        4.65321       -3.08182
H         -5.30876        4.46465       -1.64118
H         -5.61195       -1.17298        2.71378
C         -4.99801       -2.27288        4.47150
C         -4.65810       -1.54505        3.14700
C         -5.61903       -1.36003        5.53448
H         -5.72485       -3.09499        4.26155
H         -4.07095       -2.73811        4.86896
H         -4.93935       -0.52048        5.73410
H         -6.58674       -0.95231        5.17123
C         -5.85188       -2.10129        6.85539
H         -4.28072       -2.33288        2.46189
H         -6.56937       -2.93601        6.72916
H         -4.89021       -2.50739        7.24687
H         -6.25656       -1.39604        7.61369
C         -5.58638        0.92162       -2.53267
C         -6.74950        1.61558       -2.32199
C         -7.51942        0.87616       -1.43634
C         -6.78468       -0.26436       -1.18228
N         -5.59765       -0.13741       -1.73205
C         -7.01755       -1.41788       -0.28775
N         -5.72545       -2.10639       -0.09570
C         -5.26603       -3.22032       -1.00883
H         -6.96787        2.58185       -2.71926
H         -4.73172        1.20810       -3.12333
H         -8.44659        1.18035       -0.97018
H         -7.82855       -2.08911       -0.64616
H         -7.34484       -1.01677        0.69218
C         -4.78276       -2.72843       -2.39498
C         -4.07564       -3.88922       -0.30900
C         -6.31835       -4.33545       -1.24521
H         -4.00034       -1.95053       -2.29881
H         -4.31137       -3.56656       -2.96062
H         -5.62443       -2.36369       -3.02220
H         -4.38084       -4.29115        0.67917
H         -3.63831       -4.70667       -0.91608
H         -3.28526       -3.16204       -0.13709
H         -6.56179       -4.87582       -0.30659
H         -7.24816       -3.95781       -1.71517
H         -5.89979       -5.09406       -1.95512
