110
speciation2219.ct
Na         1.39190        1.20032        0.03088
Mg         4.40828        4.14460       -0.91749
C         -0.15765        3.70431       -0.35507
C         -1.61028        2.15351        0.68645
O         -0.46417        2.34166       -0.14664
C         -0.02046        4.51048        0.92105
C         -2.90593        2.70135        0.07090
H          0.82756        3.72209       -0.81921
H         -0.84219        4.17558       -1.09238
H         -1.78521        1.09022        0.81439
H         -1.45026        2.53604        1.71459
H         -3.09744        2.23228       -0.91788
H         -3.75990        2.47170        0.74286
H         -2.86446        3.80284       -0.04914
H          0.54558        3.90008        1.62337
H          0.50746        5.46361        0.71545
H         -1.00215        4.72036        1.38524
H          6.90916        4.08498       -2.24783
C          7.17052        2.18535       -1.29051
C          6.63399        3.60206       -1.28865
C          6.40774        1.31222       -2.28321
H          8.26755        2.13644       -1.47563
H          7.05053        1.84856       -0.26034
H          6.59884        0.24168       -2.06652
H          5.33479        1.50270       -2.19730
C          6.77651        1.59817       -3.72548
H          7.25835        4.08478       -0.50762
H          6.64403        2.67161       -3.96669
H          7.82745        1.29595       -3.90449
H          6.10064        1.00970       -4.37848
C          2.34694        4.07682       -3.10330
C          1.37033        3.68704       -3.97932
C          1.03428        2.39504       -3.62232
C          1.80413        2.00242       -2.54695
N          2.66015        3.12157       -2.21027
C          1.64761        0.39521       -2.04952
N          0.57924       -0.12344       -1.02981
C          0.41827       -1.18951        0.11174
H          0.97524        4.27314       -4.77739
H          2.85364        5.05536       -3.11880
H          0.30602        1.78241       -4.14856
H          2.60755       -0.12464       -2.03732
H          1.32945       -0.10291       -2.98255
C          0.72001       -0.59141        1.51535
C         -1.06311       -1.65319        0.20475
C          1.15448       -2.55772        0.02214
H          0.13237        0.31562        1.73222
H          0.50796       -1.30572        2.35177
H          1.76902       -0.34908        1.63111
H         -1.35361       -2.26882       -0.66693
H         -1.22721       -2.28950        1.11596
H         -1.78761       -0.84836        0.29245
H          0.77816       -3.21453       -0.77870
H          2.22986       -2.49249       -0.05614
H          0.93980       -3.16095        0.95636
Na        -1.35399        0.19829       -1.81504
Mg         4.11816       -1.28276       -1.30046
C          5.91463        6.69651       -0.13737
C          3.61975        7.09493       -0.51765
O          4.71142        6.22358       -0.80736
C          5.88653        6.84798        1.39918
C          3.82227        8.54240       -1.01800
H          6.74667        6.03925       -0.37223
H          6.27613        7.64083       -0.59251
H          2.71908        6.69187       -1.02044
H          3.38837        7.13826        0.56112
H          3.99387        8.56219       -2.11232
H          2.92710        9.15159       -0.77570
H          4.67046        9.05761       -0.51173
H          5.66785        5.88760        1.90242
H          6.89133        7.17468        1.75839
H          5.17872        7.63346        1.74144
H          4.73440       -2.16761       -3.65635
C          4.03211       -3.96032       -2.67985
C          4.79815       -2.64717       -2.65604
C          2.57760       -3.72155       -3.08743
H          4.50567       -4.64289       -3.41815
H          4.08134       -4.42324       -1.67080
H          2.12237       -3.00744       -2.38679
H          2.52606       -3.26014       -4.09603
C          1.79097       -5.03020       -3.09830
H          5.86887       -2.82654       -2.42376
H          2.22219       -5.72218       -3.85283
H          1.82406       -5.51569       -2.09926
H          0.73074       -4.83246       -3.36214
C          3.30013        4.48562        1.85039
C          2.65211        3.66728        2.74787
C          2.63176        2.41610        2.17868
C          3.37662        2.48525        0.98646
N          3.70561        3.76164        0.79897
C          3.88348        1.45041       -0.02626
N          3.45483        0.04821        0.02190
C          4.34620       -0.57646        1.19148
H          2.19376        3.97931        3.67830
H          3.42009        5.54379        1.98483
H          2.14550        1.58464        2.63573
H          4.94932        1.56775       -0.01142
H          3.67625        1.73587       -0.98782
C          4.30798        0.10265        2.60564
C          4.05785       -2.06079        1.50082
C          5.87085       -0.58762        0.84801
H          3.33790       -0.00399        3.11737
H          5.00320       -0.39186        3.31830
H          4.69989        1.14066        2.61332
H          4.23667       -2.70209        0.61987
H          4.77447       -2.43788        2.27634
H          3.07073       -2.20744        1.97468
H          6.09270       -1.06511       -0.11986
H          6.32312        0.40443        0.93546
H          6.46534       -1.11091        1.63327
