110
speciation2082.ct
Na         1.03433        0.06028       -0.07203
Mg         3.56614       -5.14949        0.84638
C         -1.77916        0.92914        0.92979
C         -2.13958       -1.02980       -0.33868
O         -1.28567        0.06028       -0.07203
C         -1.81339        0.30568        2.32866
C         -1.53834       -1.87530       -1.44692
H         -1.08095        1.79262        0.96992
H         -2.76654        1.35329        0.64448
H         -2.28267       -1.67561        0.55064
H         -3.12006       -0.65382       -0.70615
H         -0.58683       -2.31465       -1.10216
H         -2.23729       -2.69499       -1.71699
H         -1.33620       -1.25240       -2.34246
H         -0.81866       -0.11233        2.59063
H         -2.08015        1.08783        3.07082
H         -2.58216       -0.49029        2.39700
H          3.25102       -5.68402        3.57537
C          3.27626       -3.53455        3.70302
C          3.77949       -4.84265        3.08412
C          3.69058       -3.37468        5.17810
H          3.70400       -2.70274        3.13480
H          2.17493       -3.49242        3.63319
H          3.31123       -4.23091        5.77470
H          4.80087       -3.35003        5.25641
C          3.13602       -2.07922        5.77377
H          4.82839       -4.95799        3.40324
H          3.52122       -1.19489        5.22229
H          2.02622       -2.07980        5.72914
H          3.44425       -1.99027        6.83798
C          2.46210       -0.37762       -4.58192
C          1.92702       -1.39811       -3.81812
C          2.29626       -1.15468       -2.50469
C          3.04264        0.00042       -2.52735
N          3.13925        0.46819       -3.79733
C          3.69043        0.69305       -1.37719
N          3.40433        0.06028       -0.07203
C          3.90876        0.87940        1.08458
H          1.33386       -2.22794       -4.17865
H          2.36083       -0.26063       -5.65431
H          2.03937       -1.75340       -1.64484
H          3.29749        1.72574       -1.41146
H          4.78402        0.70332       -1.57554
C          3.19547        2.25259        1.17456
C          3.61481        0.12359        2.38060
C          5.43927        1.13349        1.03565
H          2.09564        2.12365        1.24214
H          3.53760        2.80455        2.07833
H          3.43465        2.91788        0.32197
H          4.19856       -0.80929        2.37848
H          3.93387        0.71520        3.26848
H          2.53265       -0.10467        2.47666
H          6.00823        0.18943        1.09470
H          5.74967        1.69839        0.13361
H          5.75701        1.74296        1.91030
Na         4.15599        2.24421       -4.42851
Mg         4.06765       -1.80947       -0.22738
C          1.15398       -5.97891       -0.66379
C          0.76189       -4.18165        0.84439
O          1.58250       -5.29474        0.51528
C          1.24839       -5.13651       -1.91345
C         -0.73787       -4.52165        0.99477
H          1.80726       -6.85116       -0.80690
H          0.14940       -6.43670       -0.56078
H          1.07164       -3.82335        1.83500
H          0.92867       -3.34837        0.13872
H         -0.88500       -5.33519        1.73727
H         -1.29234       -3.62879        1.34776
H         -1.19984       -4.81956        0.03132
H          2.25699       -4.79221       -1.90006
H          1.12176       -5.73723       -2.83434
H          0.53853       -4.28494       -1.91863
H          3.37374       -7.70656        1.20881
C          5.45458       -7.92769        0.74938
C          4.11973       -7.22254        0.54099
C          5.98878       -7.72743        2.16741
H          5.32836       -9.01479        0.55377
H          6.17185       -7.57394       -0.00703
H          6.04474       -6.64936        2.40442
H          5.30572       -8.21824        2.89559
C          7.39327       -8.30468        2.29912
H          3.84198       -7.42970       -0.50858
H          7.39572       -9.38770        2.05594
H          8.08172       -7.77265        1.60647
H          7.76064       -8.16345        3.33695
C          5.63429       -6.73268       -3.57130
C          6.35998       -5.78142       -4.25170
C          6.04533       -4.55269       -3.70005
C          5.15830       -4.73652       -2.71006
N          4.83774       -6.11248       -2.58118
C          4.58883       -3.60624       -1.87401
N          4.73098       -3.67922       -0.38273
C          6.21012       -3.53264        0.00010
H          7.05411       -5.97314       -5.06298
H          5.66700       -7.79648       -3.76246
H          6.45747       -3.60340       -4.01396
H          3.56862       -3.40161       -2.15104
H          5.01596       -2.65995       -2.24806
C          6.86863       -2.25858       -0.59181
C          6.33787       -3.42235        1.51669
C          7.12445       -4.72388       -0.39284
H          6.27744       -1.36692       -0.33907
H          7.90012       -2.12811       -0.19252
H          7.00159       -2.30691       -1.69014
H          6.09210       -4.39771        1.93673
H          7.39249       -3.23700        1.82412
H          5.70383       -2.61897        1.93106
H          6.77749       -5.63450        0.08951
H          7.25134       -4.89384       -1.46895
H          8.16398       -4.55596       -0.03269
