55
speciation348.ct
Na         0.93244        0.00214       -0.07370
Mg         4.02789       -1.69003       -0.74562
C         -1.95643        1.12180       -0.72171
C         -1.96844       -0.14824        1.20629
O         -1.38756        0.00214       -0.07370
C         -1.33259        1.29721       -2.09756
C         -1.36139       -1.34804        1.91597
H         -3.04568        0.94866       -0.88317
H         -1.80149        2.05634       -0.13624
H         -1.81288        0.75699        1.83600
H         -3.05800       -0.35794        1.10121
H         -0.28440       -1.17338        2.10264
H         -1.87170       -1.49982        2.89133
H         -1.48560       -2.26409        1.30036
H         -1.46273        0.37203       -2.69838
H         -1.83257        2.13792       -2.62529
H         -0.25082        1.52557       -2.00140
H          4.34739       -4.31714       -0.81089
C          2.20868       -4.01812       -1.10571
C          3.52668       -3.67890       -0.42318
C          2.29554       -3.79936       -2.61632
H          1.96309       -5.08168       -0.89435
H          1.40735       -3.37409       -0.68032
H          2.51931       -2.73060       -2.82656
H          3.11050       -4.42685       -3.03872
C          0.98244       -4.18325       -3.29387
H          3.41497       -3.89143        0.65857
H          0.75914       -5.25767       -3.11627
H          0.14663       -3.56863       -2.89673
H          1.06257       -4.01477       -4.38801
C          6.05923       -0.92113       -2.93197
C          6.35264        0.31063       -3.49240
C          5.54016        1.23482       -2.86556
C          4.79585        0.52566       -1.94864
N          5.09857       -0.77677       -2.00125
C          3.78023        1.06910       -0.98734
N          3.30244        0.00214       -0.07370
C          3.73213        0.12170        1.34303
H          7.07877        0.51273       -4.26719
H          6.51546       -1.86522       -3.19415
H          5.50410        2.30280       -3.04993
H          2.92528        1.46605       -1.57247
H          4.23896        1.91842       -0.44660
C          3.20135        1.41963        1.99714
C          3.12962       -1.05685        2.12173
C          5.26885        0.03982        1.46045
H          2.09454        1.46961        1.91472
H          3.47117        1.44252        3.07586
H          3.62730        2.33765        1.55026
H          3.52305       -2.01152        1.74064
H          3.38806       -0.99921        3.20160
H          2.02545       -1.06493        2.02599
H          5.63680       -0.90763        1.00957
H          5.76547        0.88551        0.94350
H          5.58106        0.06200        2.52692
