110
speciation2352.ct
Na         6.32660       -2.54128        6.50830
Mg         2.26793        2.14376        3.92948
C          5.72644       -5.10057        8.25886
C          7.82158       -5.19292        7.18716
O          6.46850       -4.78249        7.09078
C          6.26014       -4.48622        9.56215
C          8.58608       -4.77328        5.94001
H          4.70017       -4.70834        8.10156
H          5.62277       -6.20335        8.36335
H          8.34582       -4.71074        8.03797
H          7.87819       -6.30093        7.26934
H          8.59571       -3.66550        5.85250
H          9.63727       -5.12740        6.01721
H          8.12390       -5.21220        5.03234
H          6.39544       -3.39078        9.44829
H          5.53647       -4.67873       10.38175
H          7.21819       -4.95384        9.87126
H          3.42808        4.60020        3.78690
C          4.74474        3.62899        2.38763
C          3.86764        3.59347        3.64594
C          3.92594        3.94257        1.13568
H          5.52192        4.41698        2.52126
H          5.26132        2.65174        2.26637
H          3.18832        3.13186        0.98341
H          3.38923        4.90778        1.26634
C          4.80967        4.04577       -0.10744
H          4.54743        3.40751        4.50279
H          5.51527        4.89997       -0.01643
H          5.38899        3.11003       -0.25658
H          4.17052        4.21271       -1.00046
C          2.73759       -0.49752        2.71690
C          3.45843       -1.66669        2.75112
C          4.34883       -1.56069        3.80106
C          4.12468       -0.32256        4.37029
N          3.11946        0.32195        3.71595
C          4.83293        0.28462        5.54770
N          6.18163       -0.25178        5.91327
C          6.71103        0.44278        7.13209
H          3.34101       -2.50293        2.07491
H          1.97138       -0.25278        1.99802
H          5.06471       -2.30894        4.11021
H          4.11738        0.21319        6.38196
H          4.94961        1.33944        5.26179
C          5.84209        0.15970        8.38755
C          8.11986       -0.09810        7.41451
C          6.81178        1.98014        6.94003
H          5.74218       -0.93165        8.56316
H          6.30062        0.62115        9.28910
H          4.82784        0.60284        8.32133
H          8.79605        0.09984        6.55788
H          8.54822        0.39168        8.31831
H          8.08647       -1.19182        7.60282
H          7.40450        2.22760        6.03483
H          5.81295        2.45936        6.85880
H          7.29330        2.45506        7.82166
Na         7.49077        0.16962        4.27897
Mg         0.25469        7.09004        5.74274
C          1.38073        9.05838        7.44468
C         -0.25606        9.89701        5.96324
O          0.73715        8.91538        6.18881
C          0.46751        8.85274        8.66113
C         -0.92070        9.65561        4.61565
H          2.18077        8.28988        7.48977
H          1.89598       10.04188        7.50770
H         -1.06018        9.87257        6.72662
H          0.21848       10.90279        5.92552
H         -1.47267        8.69240        4.62968
H         -1.64260       10.47453        4.40674
H         -0.16134        9.63178        3.80653
H         -0.02914        7.86764        8.61278
H          1.07632        8.88991        9.58828
H         -0.29834        9.64978        8.74562
H          0.23995        3.31760        2.60376
C         -0.51055        1.27742        2.50521
C          0.65179        2.28911        2.52274
C         -1.37853        1.34976        3.75324
H         -1.15225        1.49380        1.62279
H         -0.12164        0.24646        2.40457
H         -0.75780        1.12627        4.64784
H         -1.80192        2.37104        3.81220
C         -2.54218        0.35835        3.69593
H          1.17194        2.19153        1.55003
H         -3.21494        0.60017        2.84510
H         -2.16763       -0.68067        3.57939
H         -3.13304        0.41737        4.63537
C          1.55685        1.38532        6.68430
C          1.17365        1.82090        7.93322
C          0.97948        3.17226        7.83325
C          1.18052        3.50343        6.51157
N          1.60731        2.42098        5.81069
C          1.01761        4.90587        6.00659
N         -0.24021        5.21766        5.28518
C         -1.55201        5.07526        6.01054
H          1.05144        1.22828        8.82862
H          1.80537        0.37227        6.43107
H          0.66704        3.84282        8.62959
H          1.10543        5.59543        6.87274
H          1.88237        5.16695        5.36706
C         -1.65834        6.07643        7.17632
C         -2.66130        5.38337        4.99034
C         -1.88724        3.67180        6.58762
H         -1.54776        7.11908        6.82145
H         -2.64642        5.98990        7.68253
H         -0.88658        5.85378        7.94131
H         -2.64050        4.63988        4.16695
H         -3.66852        5.33024        5.46903
H         -2.53829        6.39730        4.56211
H         -1.78028        2.86256        5.86533
H         -1.34655        3.41470        7.49871
H         -2.94622        3.64667        6.94219
