83
speciation450.ct
Na         3.52380        4.47316        3.00267
Mg         2.12930        4.59338       -1.15529
C          1.59536        6.10185        4.83579
C          2.66791        4.41996        6.09187
O          2.13728        4.79275        4.83511
C          2.62151        7.21436        5.07806
C          3.27073        3.02694        5.99564
H          1.16123        6.26461        3.82613
H          0.74472        6.17799        5.54830
H          3.47922        5.09864        6.42569
H          1.85248        4.38454        6.84894
H          4.11645        3.02913        5.27530
H          3.65187        2.71496        6.99201
H          2.50418        2.29866        5.65911
H          3.46931        7.11848        4.36834
H          2.13348        8.20003        4.92602
H          3.00030        7.19875        6.12003
C          6.09565        4.77185        0.84347
C          6.61629        4.28283       -0.33684
C          5.73599        3.32148       -0.78953
C          4.70937        3.26639        0.13770
N          4.94019        4.14668        1.13074
C          3.49784        2.37244        0.06059
N          2.76110        2.70634       -1.15814
C          1.49933        2.01596       -1.48087
H          7.53615        4.59405       -0.81400
H          6.54098        5.53803        1.46263
H          5.84102        2.73813       -1.69306
H          3.82327        1.31269        0.03899
H          2.86748        2.55552        0.95467
C          0.48868        2.12402       -0.32877
C          0.90954        2.74015       -2.71133
C          1.74227        0.55000       -1.87098
H          0.34157        3.18882       -0.06368
H         -0.49350        1.69953       -0.62927
H          0.83946        1.57702        0.56877
H          1.61245        2.68865       -3.57135
H         -0.05797        2.29339       -3.02481
H          0.72587        3.81123       -2.49217
H          2.45484        0.48995       -2.72165
H          2.14505       -0.03492       -1.02155
H          0.78621        0.08152       -2.19857
Na         4.07109        2.31475       -3.09398
C          1.06281        6.84723        0.13287
C          0.58700        6.65083       -2.20472
O          1.51338        6.43301       -1.15252
C         -0.32405        6.33906        0.55765
C          0.43894        8.13348       -2.55236
H          1.79559        6.46016        0.87153
H          1.10866        7.95362        0.21554
H          0.99114        6.15523       -3.11265
H         -0.39433        6.17235       -2.01650
H          1.42123        8.55513       -2.85430
H         -0.27167        8.24491       -3.39870
H          0.04035        8.71067       -1.69353
H         -0.36886        5.23577        0.50475
H         -0.52387        6.64969        1.60425
H         -1.13237        6.77575       -0.06435
C          5.68946        0.73370       -5.57244
C          6.51844        0.89886       -6.66182
C          6.71689        2.25373       -6.79644
C          6.00193        2.85541       -5.77985
N          5.38109        1.92317       -5.02982
C          5.92324        4.32144       -5.51110
N          5.36933        4.99561       -6.69135
C          5.14954        6.45404       -6.56731
H          6.93899        0.11962       -7.28324
H          5.34505       -0.21683       -5.18079
H          7.32437        2.75147       -7.54397
H          5.27280        4.46626       -4.62569
H          6.94722        4.68669       -5.29084
C          6.47708        7.20679       -6.33345
C          4.54930        6.93613       -7.89979
C          4.14727        6.77742       -5.43962
H          7.19764        6.98718       -7.15102
H          6.30174        8.30469       -6.30894
H          6.94273        6.92713       -5.36675
H          3.60017        6.39971       -8.11405
H          4.33605        8.02719       -7.86742
H          5.25284        6.74345       -8.73827
H          3.19774        6.22222       -5.59751
H          4.55238        6.51583       -4.44081
H          3.92208        7.86479       -5.41827
