110
speciation2624.ct
Na         6.39067        1.64329       -3.41019
Mg         2.46835        4.77545       -1.22466
C          3.83820        7.42993       -0.80162
C          5.09600        6.29323       -2.36482
O          4.10424        6.12002       -1.33384
C          3.08211        8.40449       -1.71654
C          5.58424        4.99803       -2.98191
H          3.21897        7.31981        0.09110
H          4.77916        7.92546       -0.45637
H          4.73295        6.94281       -3.17808
H          6.01391        6.78606       -1.96512
H          4.75030        4.44750       -3.41126
H          6.28187        5.23181       -3.81945
H          6.10444        4.37391       -2.23247
H          2.11820        7.97706       -1.97534
H          2.86353        9.34628       -1.17202
H          3.63386        8.69018       -2.63603
H          0.92115        8.82360        2.29571
C         -0.85376        9.85912        1.66108
C          0.30294        8.88066        1.37505
C         -1.82824        9.31371        2.71063
H         -0.43153       10.82901        2.01925
H         -1.40989       10.05567        0.72071
H         -2.25550        8.36433        2.32879
H         -1.29892        9.11307        3.66799
C         -2.97477       10.29466        2.97910
H          0.93387        9.34058        0.58391
H         -2.59522       11.23247        3.43993
H         -3.50458       10.54639        2.03544
H         -3.70649        9.83342        3.67663
C          6.26553       -0.43719       -1.29599
C          5.75676       -0.94229       -0.12149
C          4.80495       -0.04146        0.30416
C          4.76729        0.98401       -0.63247
N          5.67165        0.73230       -1.61767
C          3.87140        2.21147       -0.47445
N          2.92443        2.55643       -1.56088
C          1.84628        1.50288       -1.87407
H          6.06025       -1.84985        0.37711
H          7.04860       -0.90247       -1.88505
H          4.21749       -0.11852        1.20601
H          3.29704        2.09080        0.45182
H          4.56003        3.07235       -0.36065
C          0.90615        1.13426       -0.70635
C          0.90763        1.97928       -3.00006
C          2.45472        0.18166       -2.40934
H          0.15451        1.91437       -0.53587
H          0.25524        0.27797       -0.99108
H          1.44390        0.84048        0.21478
H          1.44933        2.02834       -3.95992
H          0.08479        1.25331       -3.18350
H          0.40992        2.93263       -2.72953
H          3.11366        0.36742       -3.28046
H          2.98811       -0.39034       -1.63769
H          1.64674       -0.50053       -2.76044
Na         4.21014        2.33225       -3.26642
Mg         0.00852        6.75357        0.80012
C          2.07157        4.53867       -4.15166
C          0.76753        6.29536       -3.32823
O          1.44579        5.10697       -2.99186
C          2.83582        5.44632       -5.12769
C         -0.44086        6.05467       -4.25108
H          2.78171        3.79966       -3.78453
H          1.32889        3.98325       -4.75777
H          0.42595        6.71619       -2.39107
H          1.43660        7.04657       -3.79258
H         -1.15789        5.34648       -3.79446
H         -0.94933        7.01989       -4.45101
H         -0.13149        5.64491       -5.23554
H          3.53866        6.09169       -4.60735
H          3.40940        4.81569       -5.84090
H          2.15130        6.08497       -5.71824
H         -2.36679        7.70189       -0.28038
C         -2.51962        5.72826       -1.20251
C         -1.68511        6.92355       -0.66354
C         -3.45045        5.05320       -0.18872
H         -3.16187        6.08525       -2.03499
H         -1.83543        4.95388       -1.61559
H         -4.03742        4.24814       -0.67785
H         -2.85632        4.54356        0.53700
C         -4.39266        6.01318        0.53322
H         -1.26438        7.41743       -1.55006
H         -3.83129        6.80993        1.06193
H         -5.09814        6.46659       -0.19044
H         -4.96047        5.45925        1.30950
C         -2.45771        4.69607        3.07565
C         -2.50117        3.32592        2.94553
C         -1.46864        2.97142        2.08128
C         -0.81443        4.08242        1.71341
N         -1.42783        5.23031        2.30203
C          0.35534        4.07961        0.75981
N          1.34288        5.16218        0.88657
C          2.03321        5.10207        2.29262
H         -3.22320        2.66028        3.42405
H         -3.13001        5.28413        3.67514
H         -1.23382        1.96281        1.78339
H         -0.04357        4.11521       -0.26640
H          0.90762        3.13694        0.89489
C          2.72506        3.75289        2.62381
C          3.10704        6.18859        2.40927
C          1.09135        5.36884        3.52162
H          3.53377        3.55254        1.91591
H          3.20080        3.78523        3.63367
H          2.01079        2.90072        2.69153
H          2.65680        7.19322        2.29348
H          3.57870        6.16631        3.42489
H          3.91794        6.01206        1.68677
H          0.54364        6.32872        3.44051
H          0.40606        4.52810        3.76119
H          1.66984        5.42193        4.47885
