96
speciation1494.ct
Na         3.61062       -3.70227        2.27814
Mg         1.99010       -0.01635       -2.74170
C         -0.00123       -0.41153       -0.51067
C          0.06094        1.84137       -0.98931
O          0.76679        0.60622       -1.16712
C         -0.26808       -0.12982        0.99862
C          0.78026        2.99702       -1.71029
H         -0.97126       -0.58968       -1.02711
H          0.57290       -1.35450       -0.54245
H         -0.97512        1.82025       -1.30956
H          0.19443        2.16852        0.05298
H          0.48007        3.01427       -2.74959
H          0.40592        3.96633       -1.33179
H          1.88576        2.94049       -1.58038
H         -0.97491        0.71813        1.14541
H         -0.74324       -1.00096        1.49589
H          0.67951        0.10994        1.52632
H          3.97873        0.96398       -4.32378
C          4.94069        1.65459       -2.53903
C          3.66427        1.35669       -3.33700
C          5.80972        0.40624       -2.32661
H          5.55616        2.41985       -3.07006
H          4.64808        2.08255       -1.55736
H          6.64409        0.66757       -1.63901
H          5.20467       -0.38497       -1.87554
C          6.41278       -0.17212       -3.60519
H          3.17874        2.33320       -3.55374
H          5.62557       -0.50184       -4.31239
H          7.07112        0.57281       -4.09781
H          7.01685       -1.06618       -3.34123
C          2.64834       -3.06953       -2.74525
C          3.19591       -4.15687       -2.10277
C          3.70201       -3.70472       -0.90849
C          3.42708       -2.34832       -0.86313
N          2.76710       -1.93626       -2.01420
C          3.75779       -1.44877        0.32321
N          4.61241       -1.98911        1.45619
C          4.82364       -0.95548        2.52707
H          3.21159       -5.17632       -2.46305
H          2.16117       -3.11530       -3.70242
H          4.18343       -4.30785       -0.15136
H          2.76276       -1.17326        0.71264
H          4.21763       -0.55886       -0.08890
C          3.47961       -0.54387        3.17288
C          5.68550       -1.56853        3.66926
C          5.51478        0.32318        1.98053
H          2.93655       -1.45186        3.49519
H          3.65566        0.10823        4.05278
H          2.84830        0.03430        2.47287
H          6.71691       -1.77499        3.36914
H          5.78758       -0.82021        4.49597
H          5.25346       -2.49374        4.05412
H          6.42251        0.03366        1.39351
H          4.90152        0.88741        1.24701
H          5.81452        1.02563        2.77355
Mg         6.58539       -2.65348        1.61553
C          1.27497       -0.87001       -5.72852
C          0.76274        1.33638       -5.13830
O          1.03189        0.02624       -4.62987
C          2.22770       -0.41586       -6.87116
C         -0.65731        1.50015       -5.69459
H          1.68298       -1.80376       -5.32810
H          0.29681       -1.13955       -6.18642
H          0.92232        2.03715       -4.35399
H          1.51578        1.72431       -5.85138
H         -1.40559        1.21886       -4.92719
H         -0.82938        2.55895       -5.99258
H         -0.80243        0.87554       -6.60141
H          3.24133       -0.18606       -6.48441
H          2.30836       -1.22893       -7.62424
H          1.84600        0.44932       -7.45676
C          8.78330       -0.49361        2.16591
C          9.57246        0.09362        1.19459
C          9.52547       -0.73216        0.07158
C          8.75555       -1.80829        0.44303
N          8.20136       -1.56423        1.60705
C          8.39864       -3.13530       -0.18819
N          7.70068       -3.97255        0.83261
C          8.43963       -4.83584        1.81359
H         10.06593        1.05141        1.28529
H          8.52866       -0.07508        3.13095
H          9.98984       -0.55095       -0.88786
H          9.31601       -3.65014       -0.54510
H          7.72601       -2.94478       -1.05086
C          9.54448       -4.13816        2.65612
C          7.39524       -5.36519        2.81078
C          9.07381       -6.03464        1.08575
H          9.14172       -3.32940        3.30177
H          9.99482       -4.88482        3.35644
H         10.37567       -3.74859        2.03522
H          6.58321       -5.89956        2.27908
H          7.85160       -6.06103        3.54999
H          6.94208       -4.51814        3.37702
H          8.30206       -6.57555        0.50072
H          9.88403       -5.70612        0.40127
H          9.51922       -6.74885        1.81656
