66
speciation245.ct
Na         0.91577        0.04025       -0.03584
Mg        -2.13097        0.28295       -1.84132
H         -2.57599        1.97537       -3.78956
C         -0.83814        0.85748       -4.42802
C         -1.63492        1.58021       -3.35447
C          0.45889        0.26716       -3.86374
H         -1.46462        0.04347       -4.84968
H         -0.59963        1.58575       -5.23337
H          1.08048        1.07500       -3.41829
H          0.22271       -0.47766       -3.07385
C          1.26087       -0.40972       -4.97286
H         -1.03654        2.43188       -2.96896
H          0.67356       -1.23927       -5.42216
H          1.51242        0.32625       -5.76683
H          2.20544       -0.82161       -4.55983
C         -4.13842       -1.99868       -2.32298
C         -4.43656       -3.10439       -1.54450
C         -3.65306       -3.01569       -0.40825
C         -2.92543       -1.85387       -0.54527
N         -3.20545       -1.25372       -1.70622
C         -1.93665       -1.28373        0.42945
N         -1.45423        0.04025       -0.03584
C         -1.88636        1.21040        0.76664
H         -5.14360       -3.88912       -1.77875
H         -4.56988       -1.76106       -3.28522
H         -3.62595       -3.71054        0.42023
H         -1.07621       -1.98187        0.50877
H         -2.42276       -1.23669        1.42118
C         -1.37071        1.12692        2.22481
C         -1.26994        2.47312        0.14147
C         -3.42159        1.36050        0.74010
H         -0.26459        1.02548        2.23813
H         -1.64280        2.05033        2.78101
H         -1.80603        0.28165        2.79048
H         -1.66527        2.63097       -0.87537
H         -1.52593        3.37854        0.73398
H         -0.16257        2.38938        0.09102
H         -3.77836        1.44298       -0.30978
H         -3.92744        0.49328        1.21035
H         -3.73570        2.27588        1.28691
Mg         3.85731       -1.58991       -0.77891
C          5.52860       -1.25217       -3.29103
C          5.88946       -0.06045       -3.89340
C          5.34049        0.95722       -3.13329
C          4.66852        0.34203       -2.09905
N          4.78728       -0.99257       -2.20141
C          3.89391        1.02658       -0.97368
N          3.28577        0.04025       -0.03584
C          3.72413        0.07704        1.37266
H          6.48776        0.05401       -4.78657
H          5.79198       -2.24582       -3.62704
H          5.42433        2.02070       -3.31203
H          3.07790        1.63038       -1.42254
H          4.58256        1.72562       -0.46219
C          3.35926        1.42399        2.03226
C          2.96869       -1.04269        2.11048
C          5.23796       -0.19773        1.49029
H          2.26758        1.61250        1.94793
H          3.63166        1.41339        3.10984
H          3.89441        2.27480        1.56564
H          3.19608       -2.03138        1.65644
H          3.25320       -1.07495        3.18449
H          1.87070       -0.88048        2.04803
H          5.48841       -1.17500        1.02390
H          5.84277        0.58786        0.99524
H          5.54307       -0.23223        2.55859
