96
speciation1564.ct
Na        -0.33620        3.54244        3.52252
Mg         4.40500        4.87616        0.15428
C          6.99677        3.81111        0.80822
C          6.82895        4.60850       -1.43541
O          6.14424        4.10377       -0.29715
C          7.89558        4.96029        1.27145
C          7.81766        3.59269       -2.03882
H          6.35221        3.53496        1.66392
H          7.59995        2.89847        0.60773
H          6.07141        4.80573       -2.22060
H          7.32565        5.57720       -1.22504
H          7.29353        2.65106       -2.30927
H          8.28023        4.01657       -2.95509
H          8.64549        3.35430       -1.33844
H          7.29456        5.85904        1.46890
H          8.41964        4.66250        2.20435
H          8.66611        5.21150        0.51731
H          2.15102        5.14558       -1.22410
C          2.80041        3.25420       -2.02371
C          3.10672        4.68685       -1.55200
C          1.77209        3.24789       -3.17424
H          3.73800        2.75612       -2.35051
H          2.37648        2.68660       -1.16713
H          0.83693        3.74580       -2.83623
H          2.17406        3.80648       -4.04720
C          1.41610        1.82854       -3.62452
H          3.53527        5.27568       -2.39116
H          2.31133        1.30727       -4.02403
H          0.99838        1.24242       -2.77834
H          0.64822        1.87157       -4.42829
C          3.94544        2.35320        1.47123
C          3.26954        1.68611        2.46504
C          2.48016        2.62382        3.10256
C          2.70882        3.82987        2.45555
N          3.63201        3.66100        1.48676
C          2.05046        5.15285        2.73093
N          1.09356        5.09919        3.85284
C          0.33732        6.36021        4.08774
H          3.34007        0.62979        2.68701
H          4.64000        1.90783        0.76988
H          1.80920        2.43202        3.92575
H          1.53726        5.43072        1.78907
H          2.84569        5.87670        2.95947
C         -0.59314        6.69442        2.90116
C         -0.53006        6.15475        5.34202
C          1.27390        7.56236        4.35530
H         -1.28558        5.85060        2.69827
H         -1.19953        7.59837        3.12855
H         -0.02364        6.92221        1.97791
H          0.10740        5.92151        6.22209
H         -1.11363        7.07351        5.57365
H         -1.24434        5.31742        5.19531
H          1.93322        7.35998        5.22324
H          1.89926        7.80840        3.47314
H          0.67684        8.47255        4.58417
Mg         2.08055        4.78968        5.55288
C          3.31699        5.75565        7.79262
C          4.19534        3.70580        6.93727
O          3.04274        4.48793        7.21021
C          4.34498        6.62233        7.05374
C          4.87311        3.19264        8.21091
H          2.35719        6.31403        7.78962
H          3.59005        5.64343        8.86347
H          3.86795        2.81450        6.36186
H          4.91774        4.23412        6.28305
H          4.16568        2.57061        8.79871
H          5.75168        2.57119        7.93601
H          5.23563        4.03009        8.84146
H          4.07334        6.71949        5.98297
H          4.36750        7.63248        7.51436
H          5.36735        6.20166        7.14467
C          5.07619        7.05138        2.18456
C          4.91412        8.36895        2.55894
C          4.15899        8.96457        1.58777
C          3.88902        7.98336        0.65585
N          4.45547        6.79477        1.00185
C          3.02093        8.20622       -0.53241
N          3.51474        9.33945       -1.33500
C          2.70363        9.65392       -2.53622
H          5.29742        8.84894        3.45639
H          5.59883        6.31498        2.77049
H          3.82121        9.99501        1.57096
H          3.01511        7.27964       -1.11666
H          2.00675        8.42793       -0.14497
C          1.29117       10.15260       -2.15484
C          3.41250       10.78765       -3.30041
C          2.60146        8.42676       -3.46577
H          1.35768       11.05421       -1.50777
H          0.71615       10.42047       -3.06781
H          0.70510        9.37898       -1.62021
H          4.45018       10.49632       -3.56943
H          2.86385       11.03054       -4.23772
H          3.45842       11.71187       -2.68352
H          3.61713        8.04264       -3.70161
H          2.00795        7.61345       -3.00116
H          2.08719        8.69221       -4.41289
