96
speciation1005.ct
Na         1.23765       -0.02981       -0.17950
Mg         2.12629        4.93321       -0.35386
C          2.16842       -3.04540       -0.07254
C         -0.15714       -2.93454       -0.49980
O          0.99668       -2.24061       -0.03742
C          2.43054       -3.70160       -1.43847
C         -0.51008       -4.13446        0.39772
H          3.01440       -2.37958        0.17256
H          2.16942       -3.80884        0.74120
H         -0.98629       -2.21248       -0.50637
H         -0.06969       -3.27018       -1.55324
H         -0.54141       -3.80630        1.44237
H         -1.46735       -4.60558        0.08035
H          0.26316       -4.92425        0.38155
H          2.17885       -2.99106       -2.25281
H          3.49354       -3.99846       -1.52233
H          1.81072       -4.61960       -1.56341
H          4.49024        6.19132       -1.17870
C          3.01308        7.65032       -1.78553
C          3.39025        6.20167       -1.45852
C          1.83693        7.75479       -2.76287
H          2.81857        8.21969       -0.84781
H          3.87521        8.14020       -2.29130
H          1.67556        8.82699       -3.00449
H          2.09948        7.22889       -3.70817
C          0.53899        7.18151       -2.21532
H          3.29676        5.52847       -2.31576
H          0.65219        6.09564       -2.01905
H          0.25332        7.71191       -1.28368
H         -0.26711        7.32394       -2.96731
C          0.64141        3.73897        1.96275
C         -0.28675        2.75451        2.23264
C         -0.61724        2.17704        1.02599
C          0.11610        2.83151        0.07765
N          0.90036        3.76994        0.64586
C          0.08860        2.57684       -1.38850
N         -0.20302        1.14728       -1.72515
C         -0.26907        0.94674       -3.22093
H         -0.67854        2.47734        3.19628
H          1.11253        4.39506        2.69493
H         -1.30289        1.36431        0.85061
H          1.08837        2.90343       -1.72797
H         -0.65106        3.28355       -1.80608
C          1.10237        1.25000       -3.86434
C         -0.59084       -0.51416       -3.59657
C         -1.44045        1.77710       -3.85868
H          1.81911        0.45254       -3.56872
H          1.01276        1.28431       -4.96615
H          1.55784        2.20575       -3.57412
H         -1.60218       -0.84481       -3.25688
H         -0.58764       -0.61094       -4.70828
H          0.16697       -1.22435       -3.20763
H         -2.41996        1.46052       -3.43199
H         -1.34468        2.86932       -3.74393
H         -1.52608        1.59734       -4.95291
Mg        -2.14729        0.90544       -1.30138
C          3.83306        1.79336        0.91623
C          3.10211        0.29672        2.56408
O          2.82364        0.84898        1.28252
C          5.21231        1.14586        0.69932
C          1.94833       -0.58551        2.98985
H          3.51594        2.23311       -0.04502
H          3.91005        2.66803        1.61658
H          4.03208       -0.32039        2.55895
H          3.19763        1.09784        3.33734
H          1.88630       -1.47765        2.33661
H          2.08921       -0.92451        4.03891
H          1.01133       -0.00017        2.91054
H          5.07193        0.12250        0.30029
H          5.80506        1.73951       -0.02851
H          5.80375        1.08001        1.64296
C         -4.98926        1.82667       -0.77499
C         -6.26259        1.34713       -0.55931
C         -6.19013       -0.02308       -0.66671
C         -4.86916       -0.32476       -0.91321
N         -4.13708        0.80034       -1.00623
C         -4.31030       -1.71209       -1.00182
N         -3.29402       -1.96615        0.04422
C         -3.71398       -1.96204        1.47411
H         -7.14377        1.92359       -0.31433
H         -4.69482        2.86771       -0.74091
H         -7.00100       -0.72667       -0.51664
H         -5.12496       -2.46531       -0.94272
H         -3.84530       -1.83798       -2.00258
C         -4.80367       -3.02032        1.73138
C         -2.50819       -2.29174        2.37044
C         -4.16587       -0.57208        1.92919
H         -4.43195       -4.03559        1.45979
H         -5.08863       -3.02640        2.80220
H         -5.71486       -2.81590        1.13911
H         -1.62070       -1.67030        2.10346
H         -2.73999       -2.10088        3.43967
H         -2.29529       -3.36948        2.34344
H         -3.38397        0.17974        1.67894
H         -5.12771       -0.29227        1.50667
H         -4.36089       -0.56150        3.01714
