110
speciation1930.ct
Na        -0.16324       -1.96007        5.71960
Mg        -3.34356       -2.41636        1.16610
C          2.29345       -0.36643        4.73647
C          3.22134       -2.46626        5.32827
O          2.10626       -1.56108        5.49150
C          2.61395       -0.58021        3.24552
C          4.54098       -1.97109        5.97470
H          1.33894        0.18810        4.79572
H          3.04768        0.30327        5.20685
H          2.99542       -3.45243        5.76989
H          3.41455       -2.70391        4.26338
H          4.48385       -2.00559        7.08210
H          5.38892       -2.61976        5.65443
H          4.81907       -0.94294        5.66414
H          1.93078       -1.34572        2.82679
H          2.50256        0.37074        2.68726
H          3.66681       -0.90961        3.09694
H         -5.45008       -3.39240        2.76936
C         -5.92983       -1.37003        2.67472
C         -4.87511       -2.45397        2.73685
C         -6.69938       -1.42908        1.36672
H         -6.62940       -1.48852        3.53406
H         -5.43460       -0.39139        2.74648
H         -5.97600       -1.31190        0.53811
H         -7.22767       -2.40468        1.26884
C         -7.70627       -0.28988        1.30044
H         -4.34449       -2.35714        3.70884
H         -8.44695       -0.38297        2.12317
H         -7.17652        0.68264        1.39554
H         -8.23582       -0.31582        0.32666
C         -3.09114       -0.29296        6.04248
C         -4.03026        0.53775        5.45087
C         -3.61337        0.73618        4.16571
C         -2.45837       -0.00278        4.00984
N         -2.10378       -0.63569        5.16825
C         -1.65598       -0.00882        2.75440
N         -2.39296       -0.40784        1.50779
C         -1.53320       -0.25341        0.30711
H         -4.91478        0.97809        5.90138
H         -3.14332       -0.60292        7.07557
H         -4.09602        1.36379        3.42642
H         -1.31179        1.04185        2.64917
H         -0.78921       -0.66142        2.95879
C         -0.34773       -1.19402        0.41213
C         -2.41976       -0.63610       -0.85307
C         -1.00548        1.15804        0.02753
H         -0.80427       -2.10739        0.70502
H          0.22193       -1.32177       -0.52693
H          0.36977       -0.90317        1.20334
H         -3.19694        0.12900       -1.05683
H         -1.86792       -0.91278       -1.77256
H         -2.93532       -1.48964       -0.49333
H         -1.83613        1.89087        0.03931
H         -0.22143        1.45803        0.75074
H         -0.53888        1.16519       -0.98451
Na        -3.96489        1.00320        1.15315
Mg        -1.09683       -4.37935       -0.20112
C          0.62102       -4.35283        7.35818
C         -1.71200       -4.36439        7.24071
O         -0.53725       -3.56613        7.13771
C          0.91940       -5.29633        6.19197
C         -2.95401       -3.49528        7.28932
H          1.46695       -3.65062        7.48397
H          0.57571       -4.91364        8.32265
H         -1.80958       -5.07189        6.38970
H         -1.70965       -4.93605        8.20005
H         -3.08918       -2.98577        6.31628
H         -3.84964       -4.12619        7.48034
H         -2.86354       -2.75338        8.11002
H          0.89723       -4.72756        5.24004
H          1.92359       -5.75028        6.32569
H          0.17914       -6.12242        6.14594
H         -3.38055       -3.26274       -1.63340
C         -5.35342       -2.45695       -1.87278
C         -4.30325       -3.19944       -1.00797
C         -5.54251       -3.09333       -3.27302
H         -6.32777       -2.46579       -1.34818
H         -5.02807       -1.40518       -2.02455
H         -4.58998       -3.03625       -3.84635
H         -5.83104       -4.16248       -3.17990
C         -6.63227       -2.37472       -4.07901
H         -4.66319       -4.23839       -0.88238
H         -7.61568       -2.47406       -3.57187
H         -6.39162       -1.29661       -4.19553
H         -6.72060       -2.82231       -5.09396
C         -0.27632       -5.06061       -3.25636
C          0.93916       -5.50326       -3.58497
C          1.61879       -5.52836       -2.36084
C          0.70177       -5.06722       -1.41098
N         -0.25805       -4.88318       -1.93395
C         -0.15561       -4.42387        0.53161
N         -1.93562       -3.87552        1.53171
C         -2.42068       -5.27089        1.96225
H          1.25433       -5.76036       -4.59643
H         -1.15507       -4.86404       -3.87012
H          2.64212       -5.86117       -2.22901
H          0.40944       -5.08373        1.21683
H          0.55997       -3.59743        0.76594
C         -1.42146       -5.94970        2.95275
C         -3.76955       -5.33966        2.70758
C         -2.60095       -6.19996        0.72907
H         -1.26946       -5.32065        3.85325
H         -1.80697       -6.93844        3.28754
H         -0.44676       -6.24116        2.55506
H         -4.61304       -5.11306        2.03230
H         -3.97611       -6.39879        3.00818
H         -3.77265       -4.76629        3.65696
H         -3.41370       -5.83115        0.07622
H         -1.69232       -6.31688        0.11371
H         -2.86905       -7.23124        1.04723
