70
speciation1462.ct
Na         3.79511       -0.28834        1.49864
Mg         3.40564       -0.42176       -1.67831
C          2.53109       -1.03528       -4.46857
C          1.28587        0.71874       -3.43568
O          2.16505       -0.39267       -3.25196
C          3.07996       -0.13039       -5.59165
C         -0.08597        0.31194       -3.99922
H          3.28250       -1.79300       -4.22187
H          1.66199       -1.61826       -4.84764
H          1.08829        1.17870       -2.45692
H          1.74535        1.52476       -4.04930
H         -0.55281       -0.45710       -3.35080
H         -0.75900        1.19512       -4.04326
H         -0.00267       -0.08592       -5.03206
H          3.97667        0.42266       -5.25118
H          3.35602       -0.76958       -6.45615
H          2.31556        0.58274       -5.96561
H          5.03362        1.49151       -2.77502
C          5.65645        2.09756       -0.79435
C          4.57482        1.54422       -1.76438
C          6.19528        3.48086       -1.25139
H          5.22008        2.19986        0.21953
H          6.50661        1.38503       -0.75082
H          6.64011        3.39602       -2.26732
H          5.36497        4.21966       -1.29727
C          7.27488        4.04236       -0.31482
H          3.75323        2.29053       -1.80054
H          6.86825        4.20623        0.70644
H          8.14565        3.35439       -0.25769
H          7.63855        5.02118       -0.69906
C          3.08183        2.15575        3.42922
C          2.05449        3.07483        3.35511
C          1.31121        2.75067        2.23989
C          1.90904        1.64053        1.68114
N          2.98999        1.28398        2.40930
C          1.45562        0.91598        0.42417
N          2.22778       -0.33109        0.12840
C          1.47222       -1.57308        0.46055
H          1.86904        3.89144        4.03665
H          3.85896        2.12037        4.18004
H          0.42517        3.25989        1.87775
H          1.55598        1.62902       -0.41225
H          0.37404        0.72178        0.55197
C          0.18730       -1.74710       -0.39811
C          2.39332       -2.68749        0.10265
C          1.13532       -1.69984        1.96232
H          0.42375       -1.64725       -1.47702
H         -0.24260       -2.76303       -0.23879
H         -0.61284       -1.02900       -0.14344
H          3.35751       -2.60802        0.65400
H          1.95296       -3.69624        0.26046
H          2.52521       -2.48694       -0.96408
H          2.05407       -1.62944        2.58353
H          0.41755       -0.92469        2.29376
H          0.67306       -2.69424        2.16471
C          6.00941       -1.68823       -2.32877
C          4.61217       -3.53625       -1.87852
O          4.74828       -2.08896       -1.78883
C          6.27985       -2.10744       -3.78914
C          5.46152       -4.31480       -0.85606
H          6.05312       -0.58873       -2.29548
H          6.84394       -2.01962       -1.67396
H          3.58929       -3.91396       -1.76986
H          4.78145       -3.91461       -2.89559
H          5.13350       -4.11395        0.18453
H          5.34407       -5.40495       -1.04537
H          6.54204       -4.08891       -0.94422
H          5.46462       -1.76440       -4.44996
H          7.22999       -1.66182       -4.13888
H          6.41857       -3.20237       -3.90697
