110
speciation1911.ct
Na        -2.75936        3.03611       -0.37261
Mg         0.26543       -2.33008        1.77717
C         -3.97132        5.15798        1.52366
C         -3.23069        3.44704        2.95270
O         -3.38100        3.86487        1.59442
C         -3.14302        6.26778        2.19915
C         -2.73027        2.01732        3.07223
H         -4.04156        5.41242        0.44963
H         -5.01536        5.15769        1.91686
H         -2.48696        4.08195        3.48437
H         -4.21163        3.48542        3.48222
H         -1.72212        1.91098        2.63670
H         -2.65388        1.74796        4.14909
H         -3.42573        1.31748        2.57165
H         -2.07404        6.18154        1.91513
H         -3.52041        7.26578        1.88756
H         -3.23229        6.21975        3.30753
H         -0.23930       -3.88039       -0.33194
C         -2.24839       -3.19378        0.13074
C         -0.85857       -3.67097        0.56297
C         -2.22078       -1.85861       -0.62558
H         -2.73363       -3.96860       -0.50465
H         -2.85943       -3.06407        1.04787
H         -3.26865       -1.52451       -0.78617
H         -1.70758       -1.09480       -0.00229
C         -1.56421       -1.95536       -2.00540
H         -0.95834       -4.63149        1.10862
H         -0.54504       -2.33250       -1.97224
H         -2.12393       -2.64541       -2.66623
H         -1.51547       -0.94953       -2.46108
C          3.71747        2.92556        0.94397
C          3.51042        4.29241        1.01848
C          2.14710        4.48408        0.99750
C          1.57997        3.23004        0.89065
N          2.53814        2.27768        0.85633
C          0.10948        2.93822        0.81953
N         -0.54626        3.55300       -0.35572
C         -0.07715        3.14014       -1.70330
H          4.26779        5.05419        1.10177
H          4.67682        2.43160        0.95016
H          1.63264        5.43391        1.05980
H         -0.34945        3.36936        1.73172
H         -0.07284        1.84553        0.83055
C         -0.32274        1.63363       -1.89552
C         -0.89415        3.95595       -2.71406
C          1.40752        3.44774       -2.00993
H         -1.37721        1.39434       -1.67931
H         -0.06434        1.31866       -2.92564
H          0.30370        1.03456       -1.20310
H         -0.67340        5.03940       -2.59859
H         -0.63483        3.65878       -3.75329
H         -1.97809        3.82581       -2.54794
H          1.64593        4.51442       -1.80962
H          2.10848        2.79217       -1.47251
H          1.63040        3.23354       -3.07570
Na        -0.36347        5.67963       -0.16901
Mg         2.26074        0.30712        0.86449
C         -5.30493        2.02097       -1.74093
C         -3.62063        1.61655       -3.32104
O         -3.91847        1.78638       -1.91891
C         -6.12151        0.72581       -1.78605
C         -3.64429        0.13733       -3.76154
H         -5.43873        2.46065       -0.73459
H         -5.71962        2.76549       -2.46077
H         -4.25808        2.21707       -4.01577
H         -2.60953        1.99160       -3.53756
H         -4.48155       -0.06737       -4.46588
H         -2.70352       -0.14023       -4.28790
H         -3.77944       -0.53097       -2.89329
H         -5.71078       -0.01119       -1.06487
H         -7.17574        0.94896       -1.51926
H         -6.12245        0.28291       -2.80329
H          0.23522       -2.11267        4.64113
C         -1.80993       -2.40337        4.40441
C         -0.50512       -1.87021        3.85233
C         -1.87268       -3.92857        4.51551
H         -1.97669       -1.97780        5.42098
H         -2.62055       -2.05616        3.73165
H         -1.69690       -4.37048        3.51213
H         -1.08336       -4.33027        5.20192
C         -3.29117       -4.27889        5.00396
H         -0.58395       -0.76318        3.83971
H         -3.36984       -4.22976        6.11659
H         -3.99785       -3.52147        4.64125
H         -3.73389       -5.16565        4.50197
C          3.55390       -1.79829       -3.89053
C          4.24263       -0.76062       -3.31062
C          3.85510       -0.71389       -1.95365
C          2.95011       -1.70941       -1.72723
N          2.75347       -2.41122       -2.94760
C          2.10210       -2.20529       -0.51646
N          1.98335       -1.66343        0.87265
C          3.07969       -2.08446        1.81497
H          4.93261       -0.11511       -3.85072
H          3.62277       -2.09342       -4.94720
H          4.23988        0.02134       -1.26426
H          2.25890       -3.30246       -0.47833
H          1.12153       -2.04522       -0.91986
C          4.35361       -1.28253        1.60256
C          2.59385       -1.87996        3.24122
C          3.46313       -3.59708        1.72813
H          4.14769       -0.20231        1.73271
H          5.11381       -1.56625        2.35875
H          4.78527       -1.46028        0.60131
H          3.39057       -2.07902        3.99076
H          1.81965       -2.63622        3.43423
H          2.21497       -0.84665        3.39606
H          4.13725       -3.87907        2.58560
H          4.01996       -3.85956        0.81316
H          2.56709       -4.24714        1.81280
