83
speciation478.ct
Na         1.90406       -2.42517       -0.54539
Mg         3.34670        0.02808       -1.84280
C          0.36904       -3.26737       -3.08346
C          0.58688       -4.95462       -1.44669
O          1.08427       -3.73135       -1.94650
C         -1.11649       -2.96313       -2.82653
C          1.33997       -5.32429       -0.18326
H          0.85943       -2.33460       -3.42423
H          0.48956       -3.96724       -3.93638
H         -0.48257       -4.88789       -1.15913
H          0.75550       -5.76228       -2.19208
H          1.14910       -4.55987        0.59936
H          0.99253       -6.30786        0.19500
H          2.42634       -5.38614       -0.38932
H         -1.25500       -2.32787       -1.92918
H         -1.53827       -2.43386       -3.70637
H         -1.69750       -3.89614       -2.69176
C          3.44326       -3.64753        2.00388
C          4.11124       -3.11049        3.08416
C          4.07374       -1.73692        2.93018
C          3.38165       -1.50395        1.75432
N          2.99972       -2.65848        1.20033
C          3.05648       -0.16564        1.15709
N          2.29891       -0.30173       -0.11450
C          0.91267        0.22223       -0.08178
H          4.56519       -3.66033        3.90000
H          3.28230       -4.70219        1.82780
H          4.49495       -1.00345        3.60084
H          3.99102        0.39597        0.96893
H          2.49616        0.38608        1.93674
C          0.83454        1.72444        0.27607
C          0.34566        0.06381       -1.48290
C          0.04533       -0.60938        0.89299
H          1.44157        2.32477       -0.43125
H         -0.22120        2.07353        0.20492
H          1.17021        1.94438        1.30628
H          0.47311       -0.97565       -1.79019
H         -0.72859        0.34056       -1.53812
H          0.90150        0.70565       -2.18123
H          0.07692       -1.68659        0.62996
H          0.38353       -0.49922        1.94153
H         -1.01733       -0.28500        0.84261
Na         5.93705       -3.10058       -6.14683
C          2.33810        0.99015       -4.30975
C          3.40017        2.80834       -3.28323
O          3.15828        1.40567       -3.22990
C          3.13636        0.86210       -5.60174
C          4.11991        3.31580       -2.04706
H          1.94256       -0.01597       -4.06488
H          1.44243        1.64351       -4.44695
H          4.07189        3.03783       -4.13914
H          2.45256        3.38856       -3.37710
H          5.10164        2.81736       -1.94383
H          4.30165        4.40945       -2.16412
H          3.50495        3.15545       -1.14288
H          4.02145        0.21979       -5.42521
H          2.50172        0.40483       -6.38849
H          3.47130        1.85597       -5.96240
C          6.00488       -5.37672       -3.98513
C          5.56308       -5.70357       -2.71799
C          4.83377       -4.62509       -2.26805
C          4.86655       -3.68605       -3.27733
N          5.57399       -4.14615       -4.32566
C          4.22234       -2.32937       -3.24633
N          4.66224       -1.49991       -2.10526
C          6.07887       -1.05050       -2.07214
H          5.76113       -6.62209       -2.18389
H          6.60928       -6.00523       -4.62408
H          4.35019       -4.52959       -1.30476
H          3.13383       -2.48846       -3.14241
H          4.37258       -1.79995       -4.20683
C          6.48802       -0.32795       -3.37275
C          6.20002       -0.07628       -0.89687
C          7.06100       -2.21503       -1.79751
H          5.80142        0.51716       -3.58578
H          7.52305        0.06833       -3.28630
H          6.48224       -1.02419       -4.23768
H          5.93514       -0.59171        0.05078
H          7.23725        0.31158       -0.80538
H          5.51033        0.77795       -1.03458
H          6.75728       -2.77791       -0.88900
H          7.14478       -2.91504       -2.64759
H          8.09086       -1.82867       -1.64075
