110
speciation2239.ct
Na         1.00567        0.07950        0.06039
Mg         3.49451        3.94128        3.22928
C         -1.76166       -0.86827       -0.90109
C         -1.76658        1.40322       -0.18020
O         -1.31433        0.07950        0.06039
C         -1.47474       -0.51074       -2.36675
C         -3.26807        1.57243        0.06454
H         -1.22488       -1.81560       -0.68503
H         -2.83864       -1.09658       -0.75408
H         -1.25576        2.06432        0.54517
H         -1.47009        1.77941       -1.18031
H         -3.51986        1.30277        1.11214
H         -3.55067        2.63301       -0.10648
H         -3.86571        0.94786       -0.62975
H         -0.39614       -0.28913       -2.50541
H         -1.75361       -1.36790       -3.01456
H         -2.08519        0.35324       -2.70219
H          5.39685        5.78204        3.78471
C          3.71413        6.74578        4.72737
C          4.30810        5.89808        3.59830
C          3.92002        6.09226        6.09794
H          4.21524        7.74111        4.72978
H          2.63138        6.89783        4.53540
H          3.43531        5.09459        6.10970
H          5.00763        5.96349        6.29389
C          3.32263        6.94809        7.21519
H          4.19188        6.45256        2.64328
H          3.81425        7.94457        7.25049
H          2.23232        7.08699        7.05475
H          3.47508        6.44574        8.19404
C          6.17285        2.94824        2.82909
C          6.97202        2.02911        2.21123
C          6.13516        1.26751        1.42652
C          4.84255        1.73816        1.58950
N          4.89122        2.78603        2.45952
C          3.50307        1.25849        0.98353
N          3.37567        0.07950        0.06039
C          3.59098       -1.29607        0.65018
H          8.04354        1.91594        2.32700
H          6.51691        3.69969        3.53696
H          6.48459        0.45726        0.84481
H          3.11975        2.12490        0.41657
H          2.80874        1.11672        1.83140
C          2.63275       -1.58550        1.82924
C          3.32952       -2.34047       -0.45237
C          5.02200       -1.56623        1.15225
H          1.57290       -1.49686        1.52379
H          2.78302       -2.62384        2.20113
H          2.82489       -0.91190        2.68882
H          3.99312       -2.15795       -1.32569
H          3.54800       -3.36876       -0.08023
H          2.27338       -2.32033       -0.78734
H          5.76036       -1.44971        0.33169
H          5.25424       -0.95789        2.04601
H          5.12554       -2.61393        1.51035
Na         7.31196        0.77338       -0.94395
Mg         4.48340        0.20028       -1.80508
C          1.06562        3.94141        2.00149
C          0.99079        3.92136        4.39180
O          1.67134        3.52332        3.21720
C          0.69783        5.42504        1.91171
C         -0.30969        3.13882        4.58364
H          1.79953        3.75180        1.19623
H          0.19256        3.30188        1.76906
H          1.64336        3.67445        5.25441
H          0.82586        5.01550        4.44068
H         -0.09522        2.04997        4.63624
H         -0.79676        3.45506        5.52956
H         -1.01851        3.32827        3.75144
H          1.57926        6.05141        2.15809
H          0.36671        5.65671        0.87753
H         -0.14809        5.66880        2.58652
H          2.28352       -0.94320       -2.92399
C          2.92802        0.09048       -4.70932
C          2.80084        0.00499       -3.17938
C          3.75494       -1.06521       -5.28834
H          1.91086        0.05396       -5.16010
H          3.36653        1.06930       -4.98162
H          4.76511       -1.07178       -4.83092
H          3.24919       -2.02845       -5.05649
C          3.90608       -0.94496       -6.80665
H          2.14348        0.83936       -2.85492
H          2.91309       -0.94222       -7.30571
H          4.44566       -0.01053       -7.07070
H          4.49047       -1.80733       -7.19411
C          9.77861       -1.09507       -0.43806
C         10.24291       -2.14238       -1.21905
C          9.40553       -2.22171       -2.32159
C          8.45984       -1.21042       -2.16472
N          8.69992       -0.55658       -1.01954
C          7.31517       -0.84630       -3.13489
N          6.44033        0.30532       -2.69580
C          6.72721        1.62558       -3.32447
H         11.09942       -2.76403       -1.00173
H         10.19999       -0.75808        0.49658
H          9.49404       -2.92714       -3.13630
H          7.80504       -0.63392       -4.10865
H          6.67948       -1.74150       -3.30568
C          6.50904        1.63791       -4.85637
C          5.75095        2.61532       -2.67750
C          8.18064        2.10831       -3.05668
H          5.48774        1.34295       -5.12530
H          6.67611        2.66597       -5.25041
H          7.21619        0.98147       -5.40062
H          5.89551        2.62945       -1.57509
H          5.89369        3.64251       -3.06924
H          4.70510        2.29692       -2.87784
H          8.40557        2.23736       -1.98025
H          8.93016        1.41383       -3.49037
H          8.34410        3.10679       -3.51737
