53
speciation840.ct
Na         1.40416        1.72213        0.08733
C         -1.62453        0.75257        0.30931
C         -2.25835       -0.47383        0.25895
C         -1.26867       -1.42461        0.09098
C         -0.07698       -0.73133        0.05195
N         -0.29644        0.58075        0.17415
C          1.29496       -1.30711       -0.10354
N          2.32490       -0.24232       -0.04104
C          3.23136       -0.27414        1.12948
H         -3.32220       -0.65573        0.33920
H         -2.10451        1.71456        0.42928
H         -1.40369       -2.49446        0.01209
H          1.35551       -1.80808       -1.09139
H          1.43323       -2.07988        0.67647
C          4.06295       -1.57432        1.19967
C          4.21595        0.88816        0.96721
C          2.42836       -0.07035        2.43065
H          4.64153       -1.71370        0.26398
H          4.77892       -1.51764        2.04971
H          3.43828       -2.47194        1.36725
H          3.65280        1.82618        0.88981
H          4.90879        0.96542        1.83230
H          4.81895        0.77040        0.04087
H          1.80858        0.84716        2.35517
H          1.74415       -0.91999        2.62695
H          3.10823        0.02995        3.30302
Na         3.47042       -0.30259       -1.84314
Mg         0.05221        4.68249        0.21688
C          1.82787        2.88985        4.48948
C          0.66173        3.56627        4.20539
C          0.81489        4.15629        2.96438
C          2.02940        3.85313        2.50433
N          2.73451        3.05060        3.42800
C          2.60800        4.31751        1.19704
N          1.79814        3.82596        0.06404
C          2.32136        4.12238       -1.29205
H         -0.20753        3.61575        4.84913
H          2.02473        2.31859        5.38609
H          0.08209        4.76802        2.45839
H          3.65127        3.96216        1.13490
H          2.61872        5.42372        1.21231
C          3.64970        3.38419       -1.56426
C          1.28500        3.61293       -2.31248
C          2.51160        5.63706       -1.50536
H          3.51299        2.28864       -1.45691
H          3.99605        3.57972       -2.60223
H          4.46014        3.71649       -0.88569
H          0.30593        4.11580       -2.16417
H          1.62502        3.80891       -3.35333
H          1.13103        2.51710       -2.20477
H          1.55370        6.17418       -1.33837
H          3.28126        6.05022       -0.82225
H          2.85469        5.84130       -2.54266
