83
speciation722.ct
Na         1.79048       -2.01891        0.05609
Mg         3.43798        0.11053       -1.98682
C          1.25326       -1.43708       -3.49066
C          2.47380       -0.27237       -5.05490
O          2.21419       -0.38392       -3.64544
C         -0.16685       -1.06143       -4.02554
C          3.53203        0.73372       -5.43072
H          1.58072       -2.38483       -3.97606
H          1.19373       -1.70115       -2.42508
H          2.72538       -1.24804       -5.53636
H          1.57612        0.16220       -5.53940
H          4.55915        0.39098       -5.22537
H          3.47779        0.92363       -6.52448
H          3.29384        1.66650       -4.91041
H         -0.19011       -0.92522       -5.12676
H         -0.89651       -1.86873       -3.81260
H         -0.56316       -0.12274       -3.59467
C          3.41685       -3.11432        2.59917
C          4.28186       -2.41595        3.44041
C          4.32699       -1.10805        2.98600
C          3.49786       -1.05138        1.88322
N          2.94867       -2.25145        1.65393
C          3.21873        0.19476        1.02565
N          2.25031        0.01710       -0.11693
C          0.87114        0.56464        0.19362
H          4.82553       -2.82007        4.29124
H          3.17559       -4.14553        2.67738
H          4.90587       -0.30136        3.41301
H          4.18369        0.54697        0.61303
H          2.88230        0.97898        1.73311
C          0.78509        2.09618        0.42186
C         -0.03304        0.26126       -0.99068
C          0.25080       -0.11344        1.44218
H          0.88940        2.64504       -0.51605
H         -0.23614        2.38101        0.75158
H          1.48473        2.48546        1.18504
H         -0.18789       -0.82875       -1.09275
H         -1.03752        0.72070       -0.88077
H          0.45120        0.69414       -1.88950
H          0.19342       -1.21338        1.32925
H          0.81180        0.12467        2.36733
H         -0.79434        0.24325        1.58756
Na         6.22965       -1.21658        0.12561
C          3.30447        3.03998       -1.61277
C          4.91214        2.80529       -3.28904
O          4.16425        2.12047       -2.25180
C          2.17031        3.58565       -2.50867
C          6.01848        3.73061       -2.76457
H          2.93554        2.49817       -0.74659
H          3.84957        3.87176       -1.12673
H          5.39725        2.10948       -3.99261
H          4.26978        3.38194       -3.97052
H          6.81648        3.15157       -2.25930
H          6.45821        4.27465       -3.62830
H          5.63753        4.50805       -2.07521
H          1.60772        2.74998       -2.97309
H          1.48509        4.22205       -1.91424
H          2.53807        4.26485       -3.30191
C          6.42999       -4.22641        1.30044
C          5.67766       -5.33857        0.96931
C          4.83119       -4.95438       -0.05323
C          5.11572       -3.62741       -0.31777
N          6.05853       -3.18285        0.53309
C          4.44981       -2.77016       -1.39627
N          5.04205       -1.40907       -1.59206
C          6.17063       -1.36800       -2.57025
H          5.72883       -6.31688        1.43046
H          7.17867       -4.17925        2.08114
H          4.09571       -5.57648       -0.54791
H          3.39571       -2.66371       -1.12141
H          4.43013       -3.34198       -2.34016
C          5.70096       -1.79405       -3.97074
C          6.61953        0.07126       -2.57641
C          7.42225       -2.19706       -2.19702
H          4.70040       -1.38884       -4.14971
H          6.41465       -1.45936       -4.75435
H          5.61878       -2.89422       -4.06186
H          7.02191        0.39277       -1.58971
H          7.34316        0.31796       -3.38018
H          5.70327        0.58539       -2.72556
H          7.87165       -1.87168       -1.23540
H          7.20445       -3.28043       -2.15207
H          8.20826       -2.04209       -2.97384
