96
speciation1735.ct
Na         0.68165        1.01823        0.35335
Mg         3.40945        0.31232       -1.53631
C          1.70036        0.03199       -4.50909
C          0.66332        1.38460       -2.92026
O          1.71905        0.40680       -3.10354
C          2.17381        1.07289       -5.56545
C         -0.79251        1.04309       -3.36956
H          2.27683       -0.84534       -4.70481
H          0.70862       -0.36820       -4.80987
H          0.55776        1.58004       -1.84592
H          0.90298        2.32569       -3.45230
H         -1.20602        0.17820       -2.82250
H         -1.44455        1.92449       -3.15951
H         -0.92322        0.88729       -4.46321
H          3.23972        1.28509       -5.43769
H          2.01870        0.62050       -6.57306
H          1.56532        1.99559       -5.54513
H          8.32454       -3.38525        3.46106
C          9.76508       -1.75378        3.16985
C          9.16859       -3.11902        2.79044
C          8.84220       -0.60506        2.73459
H          9.95075       -1.72311        4.26947
H         10.73797       -1.63847        2.64935
H          8.63909       -0.69582        1.64480
H          7.88291       -0.67613        3.28745
C          9.45905        0.77997        2.96785
H          9.95623       -3.89729        2.88463
H          9.76714        0.91748        4.02546
H         10.34226        0.93815        2.30988
H          8.70770        1.56022        2.71640
C         -1.53926       -1.22355       -0.43728
C         -1.43125       -2.60309       -0.39212
C         -0.15533       -2.89341        0.03744
C          0.47959       -1.65946        0.21636
N         -0.38199       -0.65906       -0.05940
C          1.84574       -1.42698        0.80579
N          2.44388       -0.07826        0.53895
C          3.07403        0.43986        1.80041
H         -2.21922       -3.31028       -0.62677
H         -2.41584       -0.66142       -0.69878
H          0.25307       -3.88760        0.22042
H          2.58570       -2.20908        0.72879
H          1.63275       -1.61240        1.87138
C          4.20256       -0.48356        2.34864
C          3.66198        1.78257        1.46544
C          2.03340        0.69256        2.93866
H          5.00190       -0.62992        1.60432
H          4.65577       -0.02540        3.25776
H          3.81443       -1.47537        2.66391
H          2.87440        2.47115        1.09430
H          4.17732        2.23854        2.33517
H          4.36886        1.57825        0.66401
H          1.22040        1.36532        2.59519
H          1.55997       -0.21785        3.36119
H          2.52658        1.17678        3.80806
Mg         8.43107       -3.06868        0.83184
C          6.05053        2.43806       -1.31617
C          4.05606        3.56542       -1.46749
O          4.62330        2.24399       -1.54002
C          6.51906        2.97941        0.07352
C          2.70160        3.62766       -2.08462
H          6.60544        1.54400       -1.55980
H          6.46985        3.14314       -2.07864
H          3.97700        3.94135       -0.42144
H          4.64251        4.29922       -2.07582
H          2.03588        3.01787       -1.46070
H          2.31273        4.67013       -2.07741
H          2.78068        3.28435       -3.13963
H          6.28242        2.32578        0.93544
H          7.62791        3.06203        0.09159
H          6.13267        4.00378        0.28636
C          9.04919       -3.40657       -2.00695
C          8.74366       -2.97793       -3.28045
C          7.67256       -2.10550       -3.15271
C          7.32277       -2.10789       -1.80883
N          8.21108       -2.85059       -1.11149
C          6.12176       -1.40305       -1.19371
N          4.84509       -1.44974       -1.98006
C          4.33878       -2.85228       -2.29218
H          9.24542       -3.26809       -4.19824
H          9.85543       -4.08616       -1.74931
H          7.17478       -1.60064       -3.96953
H          6.41999       -0.36921       -1.10102
H          5.97551       -1.74368       -0.15257
C          4.00948       -3.71704       -1.06680
C          3.08802       -2.69216       -3.12301
C          5.27742       -3.73712       -3.17125
H          3.04265       -3.45362       -0.66761
H          3.82327       -4.77155       -1.36587
H          4.82632       -3.73025       -0.31721
H          3.44082       -2.28032       -4.07919
H          2.59048       -3.65945       -3.34329
H          2.36679       -2.02875       -2.59881
H          5.56126       -3.23147       -4.11695
H          6.15536       -4.11863       -2.61949
H          4.75324       -4.66857       -3.48124
