110
speciation2157.ct
Na        -2.50440       -2.11454        4.51503
Mg         2.23755        2.19850        3.50543
C         -4.96677       -2.69934        6.24589
C         -5.68855       -2.43671        4.02477
O         -4.76698       -2.01560        5.01835
C         -4.73419       -4.21781        6.17402
C         -5.43201       -1.71172        2.71072
H         -4.22965       -2.28555        6.96547
H         -5.97073       -2.47316        6.66773
H         -5.61776       -3.52117        3.80255
H         -6.72045       -2.17690        4.35024
H         -4.46009       -2.03051        2.27762
H         -6.23826       -1.97000        1.98901
H         -5.42892       -0.61293        2.86254
H         -3.74193       -4.43969        5.72932
H         -4.77411       -4.64652        7.19702
H         -5.52473       -4.72881        5.58687
H          4.89789        2.48836        4.36431
C          4.75840        4.53293        3.70625
C          4.38647        3.04489        3.55602
C          6.27783        4.82714        3.68145
H          4.35985        5.06546        2.82649
H          4.30871        4.92591        4.63866
H          6.83897        4.24128        4.44188
H          6.66923        4.55488        2.67638
C          6.55561        6.31927        3.93402
H          4.82998        2.70390        2.59569
H          5.83391        6.96691        3.39088
H          6.48111        6.54298        5.02046
H          7.58053        6.59035        3.59822
C          3.87683       -0.22189        2.97599
C          3.94425       -1.57075        2.71591
C          2.64971       -2.03148        2.70871
C          1.83725       -0.95294        3.03756
N          2.59531        0.18248        3.14804
C          0.32455       -1.02986        3.24876
N         -0.19305       -2.21560        4.00086
C          0.37842       -2.51657        5.37131
H          4.84518       -2.15476        2.56004
H          4.74306        0.41905        3.04199
H          2.34938       -3.05802        2.55057
H         -0.13569       -1.09328        2.24733
H         -0.01991       -0.08482        3.71478
C          0.24972       -1.31291        6.27898
C         -0.41581       -3.66741        6.01958
C          1.86544       -2.96287        5.39623
H         -0.80746       -0.98815        6.35983
H          0.65011       -1.51952        7.29767
H          0.86610       -0.52721        5.83022
H         -0.32721       -4.59935        5.42454
H         -0.01689       -3.88017        7.04067
H         -1.48412       -3.40501        6.14354
H          2.04111       -3.83747        4.73675
H          2.56474       -2.13655        5.17630
H          2.16621       -3.26652        6.42423
Na         2.39538        3.78985        8.32696
Mg         2.95679        0.96005        9.77583
C          0.80949        2.61058        0.57471
C          0.87095        4.59753        1.65006
O          1.18200        3.20081        1.83780
C          0.62371        1.12508        0.62363
C          1.33227        5.52971        2.73768
H         -0.20397        2.96770        0.24020
H          1.53930        2.86241       -0.23117
H          1.31507        5.00792        0.69907
H         -0.23515        4.72251        1.59983
H          2.41394        5.66921        2.68602
H          0.88669        6.53389        2.54648
H          1.00478        5.15472        3.72134
H         -0.17685        0.91002        1.35382
H          0.29327        0.76541       -0.37829
H          1.58214        0.64187        0.86774
H          2.86743        0.28147       12.27921
C          2.39830       -1.48497       11.09583
C          2.27699        0.00003       11.38248
C          3.86417       -1.88240       10.87996
H          1.98374       -2.04247       11.96267
H          1.81152       -1.72207       10.18495
H          4.27848       -1.34548        9.99831
H          4.46732       -1.61257       11.77489
C          3.97344       -3.38632       10.65396
H          1.21307        0.28356       11.55513
H          3.58118       -3.92990       11.54030
H          3.38946       -3.68308        9.75707
H          5.03505       -3.67380       10.50398
C         -0.05056        1.98912        5.70118
C         -0.35278        1.65438        7.01731
C          0.83652        1.41934        7.64298
C          1.82465        1.61633        6.69405
N          1.29467        2.00667        5.48107
C          3.27385        1.33933        7.01015
N          3.57881        2.01109        8.28687
C          4.96537        2.43548        8.61141
H         -1.32882        1.52719        7.47708
H         -0.80492        2.15615        4.94720
H          0.96959        1.08779        8.66909
H          3.44168        0.25126        7.14417
H          3.86132        1.70311        6.16229
C          5.50255        3.32839        7.47409
C          4.83147        3.16072        9.97120
C          5.97908        1.29226        8.84335
H          4.76593        4.10732        7.18596
H          6.47641        3.79164        7.72156
H          5.70035        2.69741        6.58154
H          4.46434        2.42685       10.72997
H          5.79746        3.55456       10.34761
H          4.08516        3.97928        9.94591
H          5.69096        0.63399        9.68968
H          6.15290        0.68124        7.93680
H          6.95866        1.75085        9.12219
