110
speciation2579.ct
Na        -1.33448        2.91658       -2.30948
Mg         7.59428        5.25529        1.41689
C          8.47626        2.49920        1.49577
C         10.01942        4.06293        2.39177
O          8.98001        3.82797        1.43898
C          8.08151        1.95026        2.87346
C         11.30585        3.25280        2.12891
H          7.56459        2.49988        0.88202
H          9.19288        1.79882        1.01002
H         10.30664        5.12922        2.33609
H          9.67456        3.89399        3.43024
H         11.71974        3.48386        1.12745
H         12.06859        3.51455        2.89474
H         11.13170        2.15907        2.21037
H          7.37460        2.63480        3.37070
H          7.58534        0.96424        2.74180
H          8.96730        1.77887        3.52163
H          8.17154        7.92356        0.68282
C          9.65132        6.81141       -0.49425
C          8.82605        7.03587        0.79317
C         10.45469        8.04629       -0.97163
H         10.35204        5.96408       -0.31807
H          8.97460        6.53407       -1.32049
H          9.75331        8.87370       -1.21675
H         11.16733        8.39928       -0.19241
C         11.26626        7.72020       -2.23463
H          9.55846        7.25747        1.59649
H         12.06778        6.97531       -2.01548
H         10.61629        7.30199       -3.03658
H         11.75825        8.63338       -2.64315
C          3.56193        1.66757       -2.62492
C          2.45515        1.20609       -3.28427
C          1.36650        1.68874       -2.59211
C          1.86406        2.45061       -1.53941
N          3.21961        2.42525       -1.56255
C          1.06537        3.33214       -0.61563
N         -0.30939        2.87967       -0.42748
C         -1.11513        3.71461        0.50519
H          2.46132        0.63021       -4.19925
H          4.58406        1.52640       -2.95941
H          0.34168        1.54749       -2.88580
H          1.07806        4.36388       -1.02755
H          1.56558        3.26388        0.36229
C         -1.42654        5.09825       -0.10999
C         -2.43711        2.97275        0.73570
C         -0.43396        3.91964        1.88451
H         -1.91991        4.98917       -1.09872
H         -2.11133        5.66918        0.55474
H         -0.51166        5.71340       -0.23429
H         -2.23819        1.97111        1.17445
H         -3.09136        3.53785        1.43373
H         -2.97723        2.83263       -0.22467
H         -0.24132        2.94645        2.38206
H          0.51929        4.48279        1.80722
H         -1.08891        4.52630        2.54695
Na         0.02188        0.95151        0.42261
Mg         4.85579        3.27712       -0.77985
C          7.56285        1.74705       -1.86029
C          6.14271        0.53741       -0.46401
O          6.28723        1.77271       -1.15613
C          7.63754        0.72309       -3.00025
C          4.97698        0.52322        0.50110
H          7.77132        2.68885       -2.35735
H          8.40553        1.57141       -1.15421
H          5.94060       -0.27438       -1.18932
H          7.04609        0.30267        0.14469
H          4.02492        0.67948       -0.03289
H          4.93447       -0.48973        0.96005
H          5.10941        1.27723        1.30181
H          6.85106        0.92811       -3.75359
H          8.62837        0.80748       -3.49495
H          7.55946       -0.32391       -2.64475
H          6.18094        6.32129        3.90254
C          7.81070        5.82192        4.95418
C          6.92444        5.50483        3.75701
C          8.46364        7.19342        4.76361
H          7.16635        5.85568        5.86833
H          8.56759        5.02976        5.09916
H          9.11105        7.14995        3.86802
H          7.68753        7.97938        4.60756
C          9.29739        7.58658        5.97317
H          6.38059        4.56406        3.97389
H          8.64632        7.72214        6.86413
H         10.05442        6.80342        6.18322
H          9.81468        8.54547        5.76061
C          3.62898        4.40602       -3.46180
C          4.34496        4.71617       -4.57532
C          5.64184        4.89101       -4.15288
C          5.62682        4.79640       -2.74339
N          4.47668        4.30699       -2.42316
C          6.56358        5.10799       -1.56540
N          5.93548        4.94113       -0.18105
C          4.75096        5.81131        0.28329
H          3.92106        4.73053       -5.56680
H          2.56533        4.12672       -3.43492
H          6.48331        5.13008       -4.79915
H          6.87876        6.14951       -1.69156
H          7.47914        4.50671       -1.58814
C          3.36908        5.38740       -0.20402
C          4.62840        5.58337        1.77303
C          4.87911        7.34263        0.05783
H          3.32818        4.30836       -0.05216
H          2.54469        5.83180        0.40830
H          3.11924        5.72544       -1.22047
H          5.46770        6.13424        2.10505
H          3.73893        6.04932        2.25699
H          4.65105        4.49974        2.03739
H          5.78188        7.76366        0.54247
H          4.86338        7.60124       -1.01576
H          4.00199        7.85698        0.53184
