95
speciation1850.ct
Na         2.72404        1.47659       -0.97168
Mg         4.64399       -0.43700       -2.03259
C          2.43289       -1.86192       -3.29811
C          3.02775        0.07634       -4.47511
O          3.07560       -0.59935       -3.22683
C          3.19748       -2.85464       -4.16469
C          3.58251        1.47621       -4.32871
H          2.37829       -2.26677       -2.26952
H          1.37228       -1.77520       -3.63834
H          3.62718       -0.44185       -5.25190
H          1.97034        0.18533       -4.81925
H          4.65989        1.43116       -4.07028
H          3.46113        2.03103       -5.28586
H          3.02754        1.99713       -3.52803
H          4.25134       -2.83591       -3.85853
H          2.78925       -3.87633       -4.03141
H          3.13065       -2.59401       -5.24075
H          5.21893        5.74369       -2.78930
C          3.53972        5.23339       -1.60894
C          4.92138        4.93186       -2.07552
C          2.57079        5.16092       -2.81430
H          3.24828        4.47579       -0.85488
H          3.55956        6.24206       -1.16092
H          2.88454        5.87863       -3.60454
H          2.56675        4.14887       -3.28382
C          1.17233        5.44297       -2.34878
H          4.65719        4.08579       -2.79991
H          0.86191        4.63993       -1.64591
H          1.16628        6.42455       -1.83693
H          0.49117        5.45828       -3.22198
C          7.75533        4.18093       -2.98895
C          8.77389        3.44216       -2.62375
C          8.18521        2.55881       -1.85575
C          6.68001        2.68989       -1.86977
N          6.65810        3.93040       -2.21367
C          5.23887        2.11588       -0.88459
N          4.68286        0.64959       -0.42801
C          3.91076       -0.29881        0.66676
H          9.80424        3.46798       -2.96462
H          7.80573        4.70910       -3.93168
H          8.92055        1.94825       -1.32234
H          5.16004        2.73684        0.05152
H          4.38535        2.55798       -1.38085
C          4.00379       -0.07711        2.24127
C          2.36659       -0.41115        0.45062
C          4.32106       -1.81605        0.55814
H          3.53481        0.84122        2.63312
H          3.40897       -0.88853        2.76438
H          4.97780       -0.28196        2.71715
H          2.11377       -0.76836       -0.56131
H          1.89935       -1.17791        1.13246
H          1.83028        0.51121        0.73472
H          4.35252       -2.19073       -0.47389
H          5.17719       -2.07378        1.19496
H          3.60019       -2.51197        1.06690
Na         6.48444       -0.66378       -3.91109
Mg         6.83090        4.52295       -0.56451
H          5.93006        5.71093        1.64375
C          7.01052        7.47641        1.07050
C          6.85603        5.95300        1.07906
C          8.30751        7.93255        0.39993
H          6.13751        7.93524        0.56280
H          7.02273        7.84163        2.12531
H          8.33732        9.04357        0.43012
H          9.19222        7.54827        0.95566
C          8.38132        7.46828       -1.04959
H          7.71571        5.54051        1.65201
H          8.46894        6.36221       -1.09048
H          7.47016        7.78507       -1.59978
H          9.27414        7.91171       -1.53489
C          7.21257        2.35734        1.89722
C          7.09391        1.09373        2.39632
C          7.13725        0.21563        1.34555
C          7.31949        0.90892        0.18633
N          7.28280        2.30921        0.56426
C          7.32522        0.15421       -1.32519
N          6.57668       -0.99428       -1.72879
C          7.38324       -2.20717       -1.72430
H          6.90800        0.82422        3.42100
H          7.14843        3.26536        2.48231
H          6.96670       -0.82140        1.44690
H          8.25454        0.21516       -1.90183
H          6.74021        0.60603       -2.09710
C          7.74123       -2.51402       -0.29272
C          6.52422       -3.27678       -2.36986
C          8.72461       -2.10226       -2.51078
H          6.82004       -2.60756        0.25272
H          8.29754       -3.44450       -0.17266
H          8.37507       -1.68902        0.10550
H          6.38071       -3.02048       -3.44229
H          7.01425       -4.25821       -2.29036
H          5.52677       -3.31935       -1.89322
H          8.56122       -1.87438       -3.58465
H          9.44084       -1.36096       -2.09513
H          9.27020       -3.05590       -2.40559
