83
speciation686.ct
Na         3.17043        0.41592        2.78035
Mg         2.31703        4.77094       -1.27497
C          3.85860        7.37262       -1.50091
C          4.97292        5.75445       -2.65277
O          4.05706        5.94991       -1.57141
C          5.11931        8.16156       -1.05703
C          5.37303        4.30538       -2.88865
H          3.45222        7.79927       -2.44309
H          3.06641        7.56191       -0.77213
H          4.59806        6.18066       -3.61139
H          5.96205        6.20091       -2.40968
H          4.52088        3.79289       -3.30187
H          6.18008        4.28549       -3.65175
H          5.75178        3.85099       -1.96000
H          5.85327        8.25724       -1.88901
H          4.86741        9.20304       -0.76923
H          5.62665        7.66504       -0.20036
C          4.95735       -0.96794        0.67237
C          5.54748       -0.84984       -0.56505
C          5.21383        0.39686       -1.05201
C          4.41075        0.98728       -0.08996
N          4.26744        0.14971        0.96054
C          3.76117        2.34967       -0.16161
N          2.79752        2.55911       -1.27260
C          1.63049        1.58905       -1.31359
H          6.15582       -1.59701       -1.05909
H          5.01298       -1.82874        1.32454
H          5.51721        0.81122       -1.99906
H          3.25728        2.50996        0.78108
H          4.56479        3.10532       -0.22927
C          0.85845        1.57504       -0.01200
C          0.65772        2.01394       -2.42135
C          2.01265        0.12543       -1.64261
H          0.60787        2.59159        0.11479
H         -0.07761        0.98013       -0.07629
H          1.44961        1.22056        0.85384
H          1.13971        1.87638       -3.40591
H         -0.25065        1.37448       -2.43738
H          0.30477        3.05046       -2.26509
H          2.63319        0.06073       -2.55723
H          2.50796       -0.39281       -0.80851
H          1.09392       -0.47575       -1.82117
Na         3.82917        1.88449       -3.02628
C          1.95691        4.41456       -4.12770
C          0.74542        6.27270       -3.49616
O          1.29721        5.05223       -3.02822
C          0.99311        3.90429       -5.22476
C          0.21995        7.13596       -2.37597
H          2.75265        5.04310       -4.58284
H          2.46185        3.52772       -3.73445
H          1.45719        6.87861       -4.11646
H         -0.15864        6.02441       -4.11149
H          1.05581        7.62520       -1.84736
H         -0.42754        7.92295       -2.81881
H         -0.38171        6.52042       -1.67895
H          0.54966        4.73886       -5.80212
H          1.54461        3.26254       -5.94582
H          0.16155        3.30922       -4.79615
C         -3.19754        5.42001        2.93584
C         -3.15689        6.52104        2.10653
C         -2.02066        6.41294        1.30839
C         -1.37396        5.29931        1.64909
N         -2.05911        4.63721        2.69870
C         -0.17474        4.66849        0.94677
N          1.11061        5.40948        0.70357
C          1.86287        5.69602        1.98926
H         -3.91721        7.28659        2.05432
H         -3.98112        5.19116        3.65353
H         -1.73702        7.08443        0.51348
H         -0.57610        4.37841       -0.04366
H          0.01451        3.77756        1.57581
C          2.17302        4.44844        2.85952
C          3.18837        6.35126        1.62127
C          1.11294        6.69350        2.91004
H          1.27991        4.06711        3.39610
H          2.92238        4.69493        3.64765
H          2.59038        3.63359        2.28378
H          2.98144        7.36126        1.23290
H          3.83518        6.51486        2.50817
H          3.73986        5.71809        0.89799
H          0.82882        7.61124        2.35734
H          0.20650        6.24867        3.36324
H          1.75799        6.98720        3.77040
