96
speciation1593.ct
Na         3.56747        3.44958        2.78472
Mg         5.74384        0.76327       -3.70595
C          9.30057        0.33768       -3.88303
C          8.08001       -0.67999       -5.62379
O          7.96102        0.19149       -4.43000
C         10.38010        0.86451       -4.88132
C          8.76003       -2.07790       -5.52728
H          9.32711        1.06509       -3.07400
H          9.66710       -0.60449       -3.41937
H          7.08349       -0.80698       -6.08939
H          8.69144       -0.22756       -6.41852
H          8.21519       -2.81223       -4.91816
H          8.82209       -2.51189       -6.55772
H          9.81712       -2.02389       -5.19076
H         10.00230        1.70997       -5.49266
H         11.28231        1.21728       -4.33237
H         10.75027        0.07317       -5.57347
H          4.50390       -1.91404       -3.51104
C          6.57611       -2.11945       -2.79631
C          5.51073       -1.50092       -3.71235
C          6.30881       -1.66557       -1.39080
H          6.62802       -3.23049       -2.86519
H          7.56752       -1.73620       -3.09506
H          6.13541       -0.59955       -1.45580
H          5.39746       -2.16760       -1.00576
C          7.49770       -1.83742       -0.46253
H          5.77118       -1.86124       -4.73062
H          7.75030       -2.90641       -0.33297
H          8.37881       -1.28763       -0.86727
H          7.23478       -1.38495        0.51640
C          1.47501        1.39739        2.07791
C          1.00880        0.42951        1.22200
C          1.95074        0.31910        0.20019
C          2.95116        1.22156        0.47151
N          2.67775        1.88088        1.63085
C          4.18454        1.48297       -0.44083
N          3.91202        2.05894       -1.82266
C          3.12177        3.41957       -1.50111
H          0.08524       -0.13605        1.30568
H          0.95172        1.74469        2.96854
H          1.91496       -0.33104       -0.65112
H          4.83513        2.16760        0.14077
H          4.70407        0.53240       -0.47934
C          3.78212        4.40224       -0.46471
C          2.89122        4.27854       -2.73215
C          1.61631        3.26574       -1.00547
H          4.80015        4.70837       -0.71923
H          3.19236        5.35202       -0.39394
H          3.76666        4.02649        0.57247
H          2.11916        3.74496       -3.28926
H          2.39825        5.25321       -2.50567
H          3.79813        4.55425       -3.28851
H          1.02365        2.58988       -1.65413
H          1.43355        3.02019        0.03646
H          1.08960        4.25169       -1.00696
Mg         4.47803        2.79531       -3.49771
C          6.93978        2.30368       -1.86703
C          6.61711        4.57081       -2.51543
O          6.10437        3.25991       -2.50915
C          7.59001        2.68600       -0.51679
C          7.74343        4.70779       -3.50274
H          6.35132        1.42035       -1.67065
H          7.68442        1.99439       -2.57257
H          5.80480        5.25726       -2.81324
H          6.90434        4.91031       -1.49995
H          7.31397        4.49824       -4.48259
H          8.10954        5.74850       -3.50876
H          8.57929        4.01148       -3.26437
H          6.83704        3.01625        0.22500
H          8.12307        1.80540       -0.09234
H          8.34710        3.48518       -0.63957
C          2.24836        3.88938       -5.63514
C          1.54362        3.41551       -6.71920
C          1.98962        2.13402       -6.94205
C          2.93660        1.89379       -5.96493
N          3.10026        2.94254       -5.15656
C          3.82192        0.74225       -5.82739
N          5.18599        1.27115       -5.68729
C          5.75705        2.04907       -6.87942
H          0.80424        3.96211       -7.28999
H          2.12888        4.88056       -5.21701
H          1.68428        1.47412       -7.74102
H          3.56281        0.20997       -4.88977
H          3.72030        0.02309       -6.66591
C          5.12411        3.44568       -7.12164
C          7.23716        2.38118       -6.68680
C          5.64320        1.22466       -8.18254
H          5.15006        4.05889       -6.19518
H          5.67762        4.00817       -7.90468
H          4.11396        3.39648       -7.54495
H          7.83434        1.52191       -6.58110
H          7.65907        2.90299       -7.57551
H          7.41363        2.99050       -5.80911
H          6.17231        0.25374       -8.08029
H          4.58558        1.03588       -8.45579
H          6.09477        1.77513       -9.03708
