110
speciation2606.ct
Na        -0.29955       -0.59120       -0.48086
Mg         1.95733        4.65158       -0.61495
C          4.85585        5.98128       -0.52570
C          3.19437        7.45499       -1.36837
O          3.57320        6.07146       -1.16791
C          4.85632        6.66270        0.82607
C          4.21968        8.39390       -2.06952
H          5.08394        4.90767       -0.39521
H          5.72113        6.35766       -1.12536
H          2.29945        7.50105       -1.99839
H          2.91092        7.92655       -0.41136
H          4.39480        8.11910       -3.13122
H          3.81697        9.43376       -2.05699
H          5.19395        8.45974       -1.54367
H          3.82024        6.68742        1.03814
H          5.41675        6.09454        1.59821
H          5.05154        7.75086        0.83822
H          0.67396        6.34878       -2.62830
C         -0.60413        4.84901       -3.30523
C          0.74516        5.24738       -2.65380
C         -1.80305        5.11328       -2.39878
H         -0.75289        5.37729       -4.27791
H         -0.62750        3.79426       -3.58332
H         -2.71390        4.72879       -2.90591
H         -1.66173        4.55491       -1.45586
C         -2.03240        6.59216       -2.09841
H          1.50955        5.04491       -3.44696
H         -1.18846        7.02516       -1.52352
H         -2.17283        7.16246       -3.04252
H         -2.95195        6.68572       -1.48498
C          0.29951        0.15822        2.25452
C          1.61290        1.07568        2.23560
C          1.27056        2.62214        1.58775
C         -0.44029        2.62479        1.09597
N         -0.77180        0.83436        1.40021
C         -0.74800        4.11942        1.51587
N          0.56844        4.97742        1.59974
C          1.33965        4.98814        3.03020
H          2.53978        0.68562        2.59917
H          0.28165       -0.91133        2.46279
H          1.94216        3.38839        1.39900
H         -1.29679        4.17003        2.47489
H         -1.40173        4.60099        0.76094
C          1.93110        3.68395        3.76811
C          2.63801        5.71769        2.80707
C          0.54337        5.61153        4.21235
H          2.79684        3.18971        3.25241
H          2.44569        3.82756        4.73313
H          1.09732        3.01701        4.01323
H          2.42372        6.76236        2.51072
H          3.35636        5.73324        3.65825
H          3.14768        5.10560        2.02133
H          0.76326        6.68598        4.37301
H          0.84705        5.17325        5.19676
H         -0.50423        5.28774        4.25495
Na        -0.01341        6.98004        1.12600
Mg         3.96345        2.38210       -2.77318
C          3.98854       -0.01013       -4.29375
C          3.88185        1.75801       -5.74904
O          3.60457        1.34769       -4.42444
C          5.46776       -0.25064       -4.30199
C          3.48465        3.19753       -6.01402
H          3.89853       -0.27660       -3.31150
H          3.30288       -0.72591       -4.79633
H          4.96157        1.65853       -5.98237
H          3.28326        1.12855       -6.44822
H          4.11774        3.89521       -5.43350
H          3.64701        3.39919       -7.09606
H          2.41696        3.36573       -5.77015
H          5.91474        0.62063       -3.80424
H          5.71802       -1.16124       -3.70129
H          5.82303       -0.36231       -5.33131
H          6.08094        3.07284       -4.38093
C          7.21137        3.27082       -2.57217
C          5.88268        3.37854       -3.33273
C          7.78833        1.85543       -2.51292
H          7.96734        3.91372       -3.08453
H          7.06622        3.65259       -1.54284
H          7.06641        1.16615       -2.02669
H          8.02236        1.49223       -3.54122
C          9.06514        1.86324       -1.68296
H          5.63169        4.46155       -3.36178
H          9.79052        2.60070       -2.08943
H          8.80937        2.14451       -0.63948
H          9.53450        0.85798       -1.68594
C          3.86538       -1.61020        0.29993
C          5.21003       -1.20068        0.46119
C          5.20755        0.14492        0.51187
C          3.89196        0.52968        0.33837
N          2.97140       -0.55049        0.25874
C          3.68402        2.01386        0.17374
N          2.82513        2.48088       -0.98099
C          1.68189        1.50258       -1.32880
H          6.13970       -1.77632        0.49009
H          3.63745       -2.64935        0.15685
H          6.08688        0.79890        0.60437
H          3.48510        2.26904        1.19484
H          4.61246        2.61937        0.17928
C          0.80978        1.17924       -0.01843
C          0.93917        2.10094       -2.64086
C          2.04921        0.15785       -1.97919
H          0.76306        2.17091       -0.49284
H         -0.15015        1.20054       -0.65424
H         -0.04856        1.93706        2.75481
H         -0.15597        2.00591       -2.72747
H          0.39834        1.30046       -3.17056
H          1.60632        2.50584       -3.43227
H          2.53326       -0.83556       -1.93675
H          3.05858        0.38603       -1.79013
H          1.39233       -0.58853       -1.51232
