66
speciation201.ct
Na         2.77908        0.43078       -2.82551
Mg         4.13666        4.13169       -2.91930
H          4.75745        7.10270       -4.71682
C          6.72535        6.58904       -5.55847
C          5.54457        6.38500       -4.41784
C          6.54178        6.09536       -7.04407
H          6.98292        7.67473       -5.63291
H          7.68098        6.13080       -5.21971
H          6.39380        5.00132       -7.08693
H          5.66351        6.59447       -7.49497
C          7.75712        6.37601       -7.98274
H          6.05283        6.81692       -3.53014
H          7.96553        7.46185       -8.09756
H          8.69205        5.87630       -7.64137
H          7.55247        5.98240       -9.00910
C          4.79317       -0.99751       -0.90156
C          5.52198       -0.84601        0.27381
C          5.23322        0.41457        0.74656
C          4.35384        0.97752       -0.14946
N          4.09393        0.11856       -1.15444
C          3.78293        2.34739       -0.01276
N          2.87496        2.67640       -1.12343
C          2.18515        3.99850       -0.91476
H          6.17062       -1.57498        0.73459
H          4.77621       -1.87249       -1.51911
H          5.61318        0.87328        1.65376
H          3.23974        2.34841        0.95069
H          4.62902        3.06158        0.02230
C          3.19852        5.19589       -0.80891
C          1.23890        4.19702       -2.09790
C          1.31653        4.07246        0.35907
H          3.89644        5.35542       -1.63778
H          2.65535        6.16015       -0.72932
H          3.82660        5.11595        0.10272
H          0.40376        3.46906       -2.06342
H          0.82713        5.22933       -2.13416
H          1.76176        3.97362       -3.01914
H          0.54942        3.27485        0.36890
H          1.92396        4.02572        1.28454
H          0.79678        5.05923        0.38928
Mg         3.97492        2.34760       -2.74889
C          2.48494        5.27027       -5.01456
C          1.89423        4.92921       -6.20680
C          2.45661        3.72481       -6.59084
C          3.38365        3.38823       -5.61596
N          3.35613        4.31042       -4.64827
C          4.23909        2.14369       -5.58839
N          5.07487        2.01880       -4.37434
C          6.47191        2.47244       -4.19271
H          1.10877        5.48057       -6.70891
H          2.23678        6.13207       -4.40518
H          2.18563        3.14824       -7.46349
H          4.84014        2.05889       -6.51000
H          3.52170        1.29298       -5.57023
C          6.49806        3.92906       -4.21168
C          6.97015        2.06761       -2.78929
C          7.41703        1.96063       -5.29258
H          6.02229        4.18263       -5.16592
H          7.53364        4.30932       -4.13216
H          5.95784        4.30983       -3.33502
H          7.03729        0.97180       -2.67227
H          7.96776        2.52128       -2.58421
H          6.27604        2.46166       -2.00925
H          7.51043        0.86115       -5.25351
H          7.06808        2.28231       -6.29695
H          8.42844        2.40867       -5.14806
