55
speciation596.ct
Na         1.21576        1.91277        0.34818
Mg         3.31175        0.17905       -1.44931
C          2.38524        2.45131       -2.47277
C          2.64208        0.79545       -4.16975
O          3.12883        1.33703       -2.94948
C          0.85692        2.28916       -2.47557
C          2.91041        1.74200       -5.34538
H          2.69222        2.59396       -1.41482
H          2.68400        3.38505       -2.99563
H          3.19233       -0.14467       -4.37599
H          1.57120        0.50584       -4.12202
H          3.99961        1.93904       -5.43377
H          2.54932        1.28708       -6.29211
H          2.38173        2.70942       -5.21305
H          0.58707        1.32873       -2.00502
H          0.38413        3.12250       -1.91368
H          0.44344        2.30853       -3.50517
H          5.28708       -1.64614       -1.09334
C          5.97023       -0.96677       -3.02130
C          4.82950       -1.27661       -2.03291
C          6.91742        0.12925       -2.51728
H          6.56229       -1.89925       -3.17534
H          5.54103       -0.66583       -4.00026
H          6.34925        1.07101       -2.38233
H          7.36153       -0.17294       -1.54763
C          8.05612        0.37665       -3.51364
H          4.23364       -2.10691       -2.46709
H          8.67270       -0.53910       -3.64514
H          7.65427        0.68654       -4.50423
H          8.71736        1.18791       -3.13594
C         -1.92980        1.47722        0.22745
C         -2.66072        0.32315        0.01107
C         -1.75058       -0.70654       -0.13670
C         -0.50196       -0.14325       -0.00031
N         -0.61834        1.17978        0.21962
C          0.83564       -0.87369       -0.09596
N          2.02322       -0.00038        0.14174
C          2.68125       -0.14614        1.46230
H         -3.73867        0.24674       -0.03902
H         -2.32658        2.47148        0.36992
H         -1.97687       -1.74814       -0.31964
H          0.92002       -1.31238       -1.11413
H          0.80572       -1.72876        0.61061
C          3.34215       -1.53095        1.61425
C          3.76302        0.94336        1.54301
C          1.68987        0.07822        2.63364
H          4.01474       -1.73879        0.76348
H          3.93491       -1.57638        2.55375
H          2.59275       -2.34579        1.67237
H          3.30079        1.95324        1.48734
H          4.32461        0.87959        2.49994
H          4.47833        0.84559        0.69926
H          1.21009        1.07709        2.56735
H          0.88761       -0.68824        2.65466
H          2.22276        0.02274        3.60865
