110
speciation2431.ct
Na         7.58260        0.98499        1.59280
Mg         1.91584        0.07211        4.50885
C         10.45052        2.65749        1.93061
C          8.96137        3.74980        0.56260
O          9.12390        2.63210        1.42879
C         10.69915        1.45213        2.80403
C          7.56945        3.76112       -0.01122
H         11.20836        2.64743        1.10952
H         10.60541        3.56299        2.56563
H          9.08139        4.70075        1.13402
H          9.67742        3.72362       -0.29217
H          6.88031        3.82266        0.83435
H          7.42055        4.65436       -0.65133
H          7.38873        2.83783       -0.59425
H         10.59105        0.53256        2.19526
H         11.72979        1.49346        3.22357
H          9.96836        1.45216        3.63746
H          3.32961        2.45299        5.09274
C          4.85830        2.30854        3.58668
C          3.79835        1.63040        4.52403
C          4.31585        3.23122        2.50137
H          5.57334        2.88311        4.21247
H          5.54154        1.60901        3.08103
H          5.16340        3.54938        1.89198
H          3.63345        2.73811        1.79811
C          3.70113        4.47778        3.08933
H          4.48819        1.08710        5.19418
H          2.77464        4.22244        3.63791
H          4.43760        4.94778        3.77649
H          3.47268        5.18688        2.26830
C          2.09498       -2.81587        3.35898
C          2.90933       -3.75781        2.75447
C          4.13474       -3.17017        2.57426
C          4.00657       -1.87023        3.01132
N          2.77062       -1.66382        3.58301
C          5.03315       -0.77427        2.81840
N          6.01904       -0.82524        1.67448
C          5.46010       -0.73876        0.28042
H          2.64198       -4.76237        2.45063
H          1.05476       -2.96772        3.60653
H          5.00408       -3.62337        2.11688
H          5.56974       -0.62130        3.77870
H          4.35134        0.04726        2.62208
C          4.77641        0.61271        0.02924
C          6.63086       -0.85557       -0.71264
C          4.45400       -1.85682       -0.06530
H          5.47225        1.45702        0.20407
H          4.40587        0.67122       -1.01786
H          3.89801        0.72701        0.68144
H          7.16658       -1.81788       -0.58018
H          6.25731       -0.80981       -1.76072
H          7.35128       -0.02246       -0.57686
H          4.91188       -2.85547        0.07084
H          3.51565       -1.75366        0.51576
H          4.14044       -1.79635       -1.12787
Na         7.21131       -2.58068        1.87333
Mg        -0.22009        1.41710        6.82371
C         -0.90331        3.89841        6.40894
C         -2.63886        2.27296        6.21380
O         -1.28708        2.63348        5.91145
C         -1.10690        4.10391        7.91296
C         -3.68154        3.12774        5.49369
H          0.18676        3.97681        6.21623
H         -1.37616        4.70701        5.81778
H         -2.80368        1.22012        5.89649
H         -2.84654        2.28313        7.30176
H         -3.58719        3.00291        4.39632
H         -4.69952        2.80518        5.80580
H         -3.57881        4.19751        5.76288
H         -0.59939        3.30001        8.47868
H         -0.65793        5.07123        8.20978
H         -2.18311        4.14431        8.18121
H         -0.52284        0.30624        3.05438
C          1.19339        0.86702        1.88252
C          0.41090        0.89713        3.17572
C          0.50191        1.48276        0.65845
H          2.11547        1.40439        2.09471
H          1.44250       -0.19139        1.66894
H         -0.43613        0.93225        0.43356
H          0.25918        2.55350        0.83772
C          1.43590        1.38721       -0.55017
H          0.12734        1.93721        3.46041
H          2.35213        1.98477       -0.36460
H          1.71788        0.32610       -0.73398
H          0.95303        1.78839       -1.46319
C         -1.66009        0.93910        9.54847
C         -2.23114       -0.24644        9.96670
C         -1.97572       -1.18453        8.97255
C         -1.24349       -0.51783        7.99749
N         -1.09598        0.75769        8.33396
C         -0.52451       -1.01076        6.72236
N          0.78653       -0.26705        6.51101
C          1.82259       -0.58577        7.55963
H         -2.76606       -0.40177       10.89830
H         -1.66416        1.87324       10.09799
H         -2.28090       -2.21973        8.98895
H         -0.42764       -2.11342        6.72261
H         -1.19715       -0.75866        5.87762
C          2.13945       -2.09516        7.61127
C          3.08243        0.14073        7.15675
C          1.50789       -0.09673        8.99884
H          2.41356       -2.47137        6.60354
H          2.98753       -2.28423        8.30518
H          1.27891       -2.67892        7.99552
H          2.87540        1.23079        7.06594
H          3.90104        0.00273        7.89555
H          3.40063       -0.31266        6.20504
H          1.28989        0.99350        9.01511
H          0.70428       -0.67566        9.48709
H          2.38250       -0.25521        9.66554
