110
speciation2636.ct
Na         0.07399       -4.27054       -0.39975
Mg         1.05950       -1.27748       -0.45754
C         -1.38210       -0.15464        0.52876
C          0.31191       -0.22807        2.19337
O         -0.20614       -0.81829        0.99807
C         -1.31345        1.37003        0.37767
C         -0.56294       -0.46973        3.43424
H         -1.59684       -0.52242       -0.48385
H         -2.26052       -0.45648        1.13697
H          1.30961       -0.66034        2.41752
H          0.48089        0.85723        2.07108
H         -0.48329       -1.51860        3.78009
H         -0.21455        0.18859        4.25917
H         -1.62902       -0.22658        3.25739
H         -0.46166        1.65076       -0.27523
H         -2.25753        1.72422       -0.08732
H         -1.24032        1.88451        1.35677
H          4.01736       -0.40868       -7.54772
C          2.90805        1.10448       -6.45068
C          3.25214       -0.37126       -6.74434
C          4.11991        1.92388       -5.98856
H          2.50811        1.57620       -7.37775
H          2.10968        1.13638       -5.67731
H          4.54293        1.46392       -5.09619
H          4.91200        1.93236       -6.76718
C          3.74409        3.36408       -5.62957
H          2.32784       -0.84155       -7.14399
H          3.44574        3.93136       -6.53601
H          2.91066        3.38225       -4.89552
H          4.61989        3.86915       -5.16688
C          3.53478       -2.97288       -0.21225
C          4.18277       -4.01975        0.40554
C          3.33010       -4.49277        1.36613
C          2.19314       -3.69631        1.30055
N          2.32179       -2.74103        0.33883
C          0.98293       -3.96291        2.16358
N          0.19359       -5.02032        1.52408
C         -1.08828       -5.42766        2.15554
H          5.16312       -4.41263        0.16694
H          3.93811       -2.42653       -1.03387
H          3.50798       -5.32922        2.02828
H          0.39934       -3.03475        2.23526
H          1.31468       -4.27637        3.17740
C         -2.04549       -4.24365        2.43154
C         -1.80131       -6.38119        1.17871
C         -0.80759       -6.18432        3.46688
H         -2.35059       -3.74351        1.48859
H         -2.97072       -4.61614        2.92749
H         -1.60191       -3.49513        3.11398
H         -1.16174       -7.25737        0.94197
H         -2.75933       -6.75075        1.60681
H         -2.03144       -5.85589        0.22526
H         -0.15522       -7.06236        3.27250
H         -0.31207       -5.52999        4.21191
H         -1.75564       -6.55374        3.91570
Na         1.40879       -6.76285        1.33826
Mg         3.79827       -1.87910       -5.24190
C          2.68080        0.66764       -2.24449
C          2.87827        0.97819        0.08716
O          2.07948        0.44182       -0.96665
C          4.17918        0.33406       -2.37402
C          2.98619        2.51357        0.06771
H          2.13617        0.05810       -2.96549
H          2.50413        1.71727       -2.57788
H          2.41812        0.71397        1.03874
H          3.88296        0.50872        0.13050
H          1.97940        2.98106        0.10904
H          3.57058        2.85042        0.95207
H          3.52038        2.88186       -0.83233
H          4.40508       -0.66203       -1.99207
H          4.81519        1.08497       -1.85677
H          4.48447        0.31257       -3.42400
H          6.42935       -1.23142       -5.88533
C          6.73911       -3.36776       -5.70163
C          6.04106       -2.06035       -5.25596
C          6.43488       -3.67033       -7.17290
H          7.84197       -3.27941       -5.57555
H          6.43525       -4.21069       -5.05129
H          5.33983       -3.64117       -7.35181
H          6.92422       -2.88874       -7.79386
C          6.94368       -5.04792       -7.60432
H          6.35214       -1.85054       -4.20977
H          8.02509       -5.16940       -7.38443
H          6.37228       -5.84607       -7.08262
H          6.78778       -5.16869       -8.69774
C         -1.29070       -2.72113       -1.66578
C         -1.96403       -3.30780       -2.71079
C         -1.20340       -3.11672       -3.81582
C         -0.05669       -2.43313       -3.39810
N         -0.11754       -2.15264       -2.05844
C          1.04065       -2.11214       -4.38053
N          2.33171       -2.76120       -4.07539
C          2.38636       -4.23908       -4.19781
H         -2.91096       -3.83585       -2.66506
H         -1.65253       -2.73352       -0.64921
H         -1.41577       -3.47413       -4.81130
H          0.72886       -2.37707       -5.41027
H          1.15650       -1.02125       -4.42196
C          1.84657       -4.75327       -5.56916
C          3.84778       -4.64061       -4.11265
C          1.65179       -4.97857       -3.05389
H          2.38242       -4.25937       -6.40666
H          1.99679       -5.85249       -5.66083
H          0.75853       -4.57481       -5.67706
H          4.28958       -4.32246       -3.14213
H          3.99236       -5.73788       -4.22972
H          4.35229       -4.13221       -4.94042
H          2.01115       -4.61489       -2.06806
H          0.55730       -4.87206       -3.09799
H          1.83878       -6.07440       -3.10725
