83
speciation695.ct
Na         3.58319       -0.44246       -2.01943
Mg         3.97232       -0.84108        1.53356
C          4.27313       -0.35050        4.65326
C          1.99552       -0.17306        4.20261
O          3.31609       -0.20889        3.58637
C          4.07569       -1.54144        5.64192
C          1.73830        1.02144        5.15611
H          5.27281       -0.38499        4.23296
H          4.32885        0.58764        5.24240
H          1.17693       -0.07412        3.52596
H          1.72923       -1.13751        4.67191
H          1.87898        1.98909        4.62851
H          0.68739        0.98276        5.52175
H          2.37211        1.00197        6.06511
H          4.13001       -2.52415        5.14916
H          4.86841       -1.53012        6.41499
H          3.12319       -1.48485        6.21284
C          1.93823        3.38031       -3.24568
C          1.21033        4.09127       -2.30667
C          1.56946        3.58511       -1.05515
C          2.44688        2.60304       -1.21738
N          2.74513        2.43113       -2.59338
C          3.04216        1.75480       -0.09428
N          2.81098        0.28481       -0.16141
C          1.33115       -0.08595       -0.30049
H          0.50549        4.88426       -2.51622
H          1.88161        3.53652       -4.31059
H          1.14263        3.90500       -0.12263
H          2.68553        2.14279        0.88201
H          4.12841        1.94023       -0.10898
C          0.60686        0.37174       -1.58804
C          1.21427       -1.60799       -0.30989
C          0.56077        0.43657        0.88593
H          1.16805        0.08913       -2.49483
H         -0.40471       -0.10086       -1.64408
H          0.34803        1.43360       -1.59641
H          1.50685       -2.02323        0.66378
H          0.15972       -1.94307       -0.43693
H          1.79765       -2.02957       -1.15336
H          1.22668        0.17299        1.67132
H          0.44762        1.54044        0.89197
H         -0.43874       -0.03964        1.01460
Na         6.31777        1.12772        2.31125
C          3.33430       -3.47746        2.56110
C          3.76049       -3.56134        0.21392
O          3.50180       -2.74781        1.35831
C          4.56933       -4.25594        3.00302
C          2.69602       -4.65310       -0.04814
H          3.06408       -2.74660        3.33194
H          2.44139       -4.12958        2.52402
H          3.79738       -2.90538       -0.67808
H          4.74874       -4.03488        0.27699
H          1.68506       -4.22621       -0.19409
H          2.96338       -5.22645       -0.95887
H          2.64360       -5.39005        0.77903
H          5.37481       -3.54826        3.17419
H          4.39353       -4.76442        3.96930
H          4.87551       -5.02067        2.25978
C          7.68318       -4.97633        0.91477
C          8.31140       -5.04632        2.13434
C          8.12669       -3.82582        2.76405
C          7.42189       -3.02441        1.95486
N          7.07910       -3.71997        0.77795
C          7.02616       -1.59184        2.31617
N          6.29419       -0.76204        1.30263
C          7.18904       -0.38497        0.11665
H          8.85493       -5.90490        2.50912
H          7.65075       -5.75857        0.16786
H          8.50080       -3.56396        3.74540
H          7.92806       -1.05921        2.66848
H          6.42334       -1.67595        3.21653
C          7.59237       -1.54834       -0.82271
C          6.45913        0.63451       -0.75426
C          8.52987        0.28364        0.56258
H          6.71103       -2.12694       -1.16661
H          8.11496       -1.16586       -1.72803
H          8.37242       -2.19023       -0.36602
H          6.25096        1.55083       -0.17390
H          7.09031        0.93310       -1.62406
H          5.52943        0.19189       -1.15082
H          8.35838        1.18185        1.18836
H          9.19689       -0.41528        1.11069
H          9.12885        0.59894       -0.32151
