95
speciation1246.ct
Na         2.27302       -0.53593        1.60840
Mg         2.24805        4.67133       -0.98636
C          0.88364       -1.91397        3.83213
C         -0.65087       -1.50445        2.12002
O          0.54304       -1.05607        2.74954
C          1.29521       -3.32153        3.38355
C         -1.12486       -0.53301        1.05696
H          1.73892       -1.45328        4.36813
H          0.06211       -1.97148        4.58564
H         -0.51034       -2.48370        1.62125
H         -1.47430       -1.56058        2.86889
H         -0.39260       -0.50402        0.22375
H         -2.09561       -0.87657        0.64094
H         -1.28260        0.47152        1.50210
H          2.06724       -3.25125        2.59047
H          1.70305       -3.88998        4.24498
H          0.42324       -3.89448        3.00373
H          3.54744        7.04634       -1.48341
C          5.08397        5.61195       -1.98835
C          3.91968        6.07183       -1.10651
C          4.63841        5.38274       -3.42921
H          5.89497        6.37494       -1.97390
H          5.50556        4.66864       -1.58537
H          3.82404        4.62782       -3.44710
H          4.25635        6.32737       -3.87238
C          5.81409        4.87989       -4.25834
H          4.33255        6.23678       -0.08621
H          6.62502        5.63505       -4.29583
H          6.22797        3.96317       -3.79086
H          5.47730        4.65856       -5.29314
C          5.07883       -0.85401        0.11797
C          6.11957       -0.23459       -0.53022
C          5.81327        1.10881       -0.56750
C          4.58753        1.24942        0.02031
N          4.15050        0.05188        0.49675
C          3.84691        2.56647        0.03593
N          2.91268        2.76005       -1.12321
C          1.78770        1.82199       -1.22263
H          6.98677       -0.71535       -0.96673
H          5.00305       -1.92104        0.27762
H          6.37499        1.90822       -1.03003
H          3.40439        2.75841        1.03026
H          4.61620        3.35700       -0.05118
C          1.00211        2.02812        0.09995
C          1.09927        2.17024       -2.55954
C          2.17931        0.31881       -1.44208
H          0.98917        3.09796        0.38078
H         -0.01249        1.64304        0.13343
H          1.56851        1.56692        0.94424
H          1.82869        1.95168       -3.38297
H          0.22505        1.51079       -2.75555
H          0.81053        3.22718       -2.66958
H          3.14731        0.22163       -1.98524
H          2.14279       -0.28242       -0.52554
H          1.45224       -0.24519       -2.06278
Na         4.22268        2.36847       -3.05905
Mg         4.33631        1.61435       -6.54323
H         -0.28588        5.33470       -1.77862
C         -0.27859        6.71062       -0.12379
C          0.11567        5.36055       -0.74542
C          0.21719        6.87916        1.31535
H          0.13258        7.53397       -0.74332
H         -1.38971        6.81351       -0.12404
H         -0.09151        7.88748        1.67213
H         -0.23782        6.12366        1.99484
C          1.73463        6.77467        1.36806
H         -0.43369        4.58178       -0.17749
H          2.04848        5.73778        1.12204
H          2.17734        7.47926        0.63297
H          2.10531        7.02853        2.38016
C          2.02176        1.68288       -8.68210
C          2.23301        1.52611       -9.99961
C          3.55277        1.12240      -10.04507
C          3.98465        1.13101       -8.73838
N          3.13994        1.25182       -8.09158
C          5.38609        1.82877       -7.09430
N          5.53267        1.97688       -4.99488
C          6.41615        0.79166       -4.80948
H          1.52569        1.68006      -10.80304
H          1.19578        2.19431       -8.19940
H          3.70374        0.35976      -10.79622
H          6.37693        1.88427       -7.57669
H          5.22619        2.93886       -7.31747
C          7.80635        0.98493       -5.48308
C          6.69209        0.59137       -3.36808
C          5.72356       -0.49775       -5.33244
H          8.28215        1.92115       -5.11817
H          8.47618        0.13132       -5.25453
H          7.81550        1.00381       -6.57610
H          5.70149        0.42371       -2.91808
H          7.33275       -0.30949       -3.22363
H          7.22741        1.47319       -2.96262
H          4.74429       -0.63842       -4.82623
H          5.53817       -0.49291       -6.42307
H          6.35587       -1.39001       -5.14156
