83
speciation524.ct
Na         1.53915       -0.86564        0.82986
Mg         1.50384        1.81182       -1.50463
C         -1.32089       -1.94563        0.67565
C         -0.53130       -1.26376        2.82722
O         -0.43350       -1.10749        1.42477
C         -2.76940       -1.48266        0.79502
C         -0.32378       -2.68604        3.37066
H         -1.05117       -1.86776       -0.39936
H         -1.24915       -3.02076        0.93022
H          0.26918       -0.63171        3.25971
H         -1.48572       -0.82846        3.18210
H          0.66554       -3.08791        3.06860
H         -0.37139       -2.64402        4.47851
H         -1.12650       -3.38137        3.04970
H         -2.84212       -0.41662        0.50083
H         -3.42024       -2.09001        0.12959
H         -3.13507       -1.61291        1.83368
C          1.20331       -3.52252       -0.59936
C          1.52161       -4.19839       -1.74533
C          2.26000       -3.32680       -2.51749
C          2.32623       -2.13110       -1.83521
N          1.68747       -2.26505       -0.65366
C          3.11805       -0.91407       -2.26658
N          2.34162        0.24701       -2.76464
C          1.98429        0.20640       -4.20487
H          1.25851       -5.21993       -1.98061
H          0.66225       -3.91622        0.24271
H          2.69965       -3.55536       -3.48308
H          3.89047       -1.24566       -2.97275
H          3.77332       -0.57561       -1.47185
C          0.90986       -0.87292       -4.46305
C          1.43120        1.57677       -4.59967
C          3.19934       -0.03558       -5.14222
H          0.04143       -0.76147       -3.79357
H          0.55241       -0.83062       -5.51092
H          1.31157       -1.88120       -4.31468
H          2.19280        2.37060       -4.45198
H          1.10696        1.58483       -5.66230
H          0.57826        1.82762       -3.98257
H          3.93471        0.79421       -5.05141
H          3.72788       -0.99347       -4.98371
H          2.85509       -0.08234       -6.19528
Na         3.50200        1.89613       -2.34139
C         -1.29009        1.58675       -2.08256
C         -0.93663        3.09987       -0.30387
O         -0.43403        1.97756       -1.02241
C         -1.71503        2.69915       -3.07031
C         -2.26448        2.80669        0.41242
H         -0.74242        0.81780       -2.63612
H         -2.17628        1.03699       -1.69970
H         -0.23533        3.31532        0.51239
H         -1.01744        4.01038       -0.94076
H         -2.12691        1.95774        1.11104
H         -2.58330        3.70116        0.99065
H         -3.07847        2.57013       -0.30142
H         -0.85220        3.30009       -3.41904
H         -2.20579        2.23680       -3.95288
H         -2.44444        3.39508       -2.61094
C          4.52204       -0.99731        0.82688
C          5.78011       -0.45896        0.70009
C          5.60781        0.89848        0.61068
C          4.24285        1.13760        0.67032
N          3.57091       -0.03194        0.79003
C          3.64355        2.51822        0.65278
N          3.06595        2.95702       -0.63949
C          3.00381        4.44784       -0.80699
H          6.72088       -0.99930        0.66875
H          4.30410       -2.05235        0.90401
H          6.39999        1.63220        0.50097
H          2.90707        2.61175        1.47766
H          4.49106        3.17688        0.91734
C          4.41178        5.09457       -0.92823
C          2.23963        4.75853       -2.10332
C          2.27893        5.12762        0.37641
H          4.98165        4.66690       -1.77873
H          4.31323        6.19143       -1.09569
H          5.02078        4.99580       -0.00845
H          1.22370        4.31524       -2.07456
H          2.13835        5.85815       -2.24424
H          2.78199        4.35030       -2.98241
H          1.25854        4.74796        0.48451
H          2.81523        4.96607        1.33491
H          2.20395        6.22372        0.22114
