81
speciation383.ct
Na         1.52194        1.78365        0.05780
Mg         3.30286       -0.26742       -1.89340
C          2.20211        4.05956        1.71694
C          1.53320        4.61295       -0.51569
O          2.18008        3.69155        0.34221
C          0.87068        4.52807        2.32265
C          2.40446        5.84203       -0.75687
H          2.50974        3.15841        2.28282
H          3.00119        4.80802        1.89769
H          1.39303        4.11358       -1.49752
H          0.51245        4.88397       -0.17899
H          3.38445        5.52969       -1.17670
H          1.90265        6.52205       -1.47607
H          2.57229        6.39472        0.19032
H          0.07274        3.77701        2.14454
H          0.99764        4.66255        3.41782
H          0.56594        5.51388        1.91366
H          3.43705        2.46839       -1.52831
C          4.54785        2.58322       -3.36105
C          4.17710        1.84174       -2.06315
C          3.33778        2.75107       -4.27730
H          4.94922        3.59133       -3.10559
H          5.35651        2.04127       -3.89313
H          2.91874        1.75259       -4.51395
H          2.56501        3.36008       -3.75688
C          3.71875        3.44925       -5.58373
H          5.10531        1.85497       -1.45598
H          4.12804        4.46332       -5.38811
H          4.47729        2.85202       -6.13452
H          2.81639        3.54946       -6.22358
C         -1.59626        1.07770        0.04144
C         -2.31129       -0.10315       -0.04941
C         -1.38282       -1.12073       -0.12875
C         -0.14681       -0.50929       -0.07893
N         -0.27814        0.81434        0.02566
C          1.17526       -1.19164       -0.16726
N          2.31759       -0.24558       -0.09602
C          3.16491       -0.36720        1.12364
H         -3.38757       -0.20893       -0.06789
H         -2.01324        2.07245        0.10320
H         -1.58299       -2.18144       -0.22023
H          1.16137       -1.63754       -1.16523
H          1.21107       -1.98505        0.60447
C          3.82091       -1.76003        1.28451
C          4.30194        0.64960        0.99273
C          2.34488       -0.03789        2.38974
H          4.45716       -1.98684        0.41151
H          4.47612       -1.77025        2.18456
H          3.09160       -2.58109        1.42367
H          3.90173        1.67325        0.85171
H          4.95879        0.64632        1.88776
H          4.92937        0.37420        0.12173
H          1.85665        0.95128        2.29400
H          1.55394       -0.79366        2.57173
H          3.00309       -0.01688        3.28605
Mg         3.31019       -0.17322       -6.24803
C          5.65063       -1.72200       -7.16683
C          6.76994       -2.39053       -6.72044
C          6.77848       -2.26894       -5.34757
C          5.64375       -1.53918       -5.02318
N          4.96903       -1.19677       -6.13210
C          5.20684       -1.19628       -3.63580
N          3.85796       -1.68802       -3.30084
C          3.68737       -3.18768       -3.22443
H          7.49780       -2.91616       -7.31896
H          5.34926       -1.62807       -8.19854
H          7.49879       -2.68337       -4.66176
H          5.18024       -0.10221       -3.58520
H          5.94246       -1.52040       -2.87295
C          4.70350       -3.83073       -2.25912
C          2.28001       -3.54738       -2.71729
C          3.79524       -3.86596       -4.61461
H          4.61281       -3.37010       -1.26026
H          4.51424       -4.91985       -2.15066
H          5.74553       -3.70971       -2.61509
H          1.48952       -3.05024       -3.32134
H          2.10812       -4.64646       -2.77891
H          2.18853       -3.32328       -1.64647
H          3.09092       -3.39883       -5.33637
H          4.81138       -3.85778       -5.02898
H          3.55373       -4.94917       -4.54590
