110
speciation1864.ct
Na        -4.76198       -4.51358       -0.32222
Mg        -3.20682        1.82240       -2.13297
C         -4.23207       -5.18663        2.85580
C         -2.31956       -4.60520        1.64549
O         -3.72326       -4.73077        1.61437
C         -4.09921       -4.14365        3.97130
C         -1.90852       -4.12201        0.29895
H         -5.31652       -5.35162        2.72653
H         -3.77145       -6.15661        3.16067
H         -2.00997       -3.80486        2.35387
H         -1.79830       -5.56393        1.86419
H         -2.52173       -3.21202        0.15274
H         -0.81970       -3.90516        0.27937
H         -2.15485       -4.86189       -0.48592
H         -4.52714       -3.17854        3.62999
H         -4.64315       -4.48953        4.87288
H         -3.03961       -3.99213        4.27002
H         -1.58559        3.40332       -3.88495
C         -0.80132        1.41449       -4.31174
C         -1.41361        2.45732       -3.34222
C         -1.66620        1.12616       -5.52414
H          0.19970        1.74294       -4.66801
H         -0.63836        0.45988       -3.78695
H         -1.21647        0.28230       -6.10366
H         -2.66045        0.80714       -5.20358
C         -1.79730        2.32559       -6.44499
H         -0.63649        2.74819       -2.60997
H         -2.29916        3.16651       -5.92799
H         -0.78802        2.64211       -6.78276
H         -2.41292        2.05231       -7.32497
C         -4.72070       -3.49706       -3.42288
C         -4.27093       -2.76617       -4.50942
C         -3.32143       -1.93979       -4.04703
C         -3.22773       -2.15453       -2.68520
N         -4.08212       -3.15148       -2.26982
C         -2.13000       -1.41694       -1.92403
N         -2.52546       -0.18630       -1.17554
C         -1.41211        0.18066       -0.20586
H         -4.57747       -2.85983       -5.55633
H         -5.46120       -4.27151       -3.52372
H         -2.71982       -1.26740       -4.63303
H         -1.60357       -2.15584       -1.31586
H         -1.32696       -1.17646       -2.63120
C         -0.03014        0.40963       -0.86714
C         -1.85553        1.45349        0.37328
C         -1.20545       -0.81620        0.94620
H         -0.09978        0.97893       -1.77443
H          0.64287        0.98883       -0.19134
H          0.48503       -0.53649       -1.13503
H         -2.78224        1.15037        0.83303
H         -1.16461        1.88073        1.12884
H         -1.97186        2.12527       -0.47915
H         -2.15940       -1.08051        1.44166
H         -0.68160       -1.72553        0.60837
H         -0.52819       -0.37028        1.71130
Na        -4.13991       -0.82632        0.06579
Mg        -1.99541        3.85260        0.22230
C         -7.44517       -5.35208       -1.23979
C         -7.18261       -6.83843        0.51839
O         -6.49091       -5.95748       -0.38143
C         -8.27802       -4.28472       -0.52771
C         -6.27932       -7.83692        1.23575
H         -6.88966       -4.87233       -2.05259
H         -8.09812       -6.10111       -1.74857
H         -7.76536       -6.28183        1.28460
H         -7.88766       -7.49800       -0.04973
H         -5.60630       -7.33792        1.94340
H         -6.91611       -8.53640        1.82838
H         -5.68779       -8.42852        0.51131
H         -7.60471       -3.56847       -0.01427
H         -8.89847       -3.74152       -1.26952
H         -8.96722       -4.73929        0.21429
H         -4.62264        2.62612       -4.32525
C         -6.38695        1.62450       -3.66380
C         -4.84732        1.69319       -3.76908
C         -6.88309        0.30305       -3.08565
H         -6.77851        2.46558       -3.05733
H         -6.82726        1.72705       -4.68685
H         -7.99521        0.31660       -3.04894
H         -6.56928       -0.53688       -3.74313
C         -6.33410        0.09516       -1.68698
H         -4.58399        0.86510       -4.44803
H         -5.22686        0.06715       -1.73175
H         -6.65333        0.93109       -1.03066
H         -6.70376       -0.86296       -1.27204
C         -6.13243        7.31839       -2.33061
C         -6.47876        6.25473       -3.13844
C         -5.54816        5.25166       -2.92277
C         -4.66531        5.67032       -2.00154
N         -4.97732        6.98652       -1.60067
C         -3.47050        4.89621       -1.48061
N         -3.70914        3.61736       -0.73478
C         -4.67062        3.75444        0.45048
H         -7.32489        6.22130       -3.81302
H         -6.66520        8.25408       -2.26962
H         -5.54882        4.30647       -3.40697
H         -2.90963        5.59129       -0.82073
H         -2.78489        4.69154       -2.32277
C         -6.12557        4.02624        0.02267
C         -4.74552        2.47449        1.30491
C         -4.20028        4.86058        1.44586
H         -6.44408        3.29001       -0.73861
H         -6.81331        3.95502        0.89515
H         -6.28562        5.05259       -0.33044
H         -3.85081        2.37273        1.94915
H         -5.54641        2.53564        2.07413
H         -4.95813        1.58412        0.67781
H         -3.18735        4.62115        1.84781
H         -4.15790        5.86958        0.99572
H         -4.88632        4.92423        2.32015
