83
speciation563.ct
Na         1.36483        2.03914        0.22596
Mg         3.38218        0.08335       -1.63630
C          2.42368        4.26657        1.88109
C          0.83493        4.88564        0.21743
O          1.88969        4.01358        0.57915
C          1.40793        4.30440        3.01986
C          1.34357        6.29135       -0.07897
H          3.11139        3.44953        2.13543
H          3.06866        5.17084        1.87065
H          0.38439        4.50204       -0.71866
H          0.00834        4.89483        0.95493
H          2.09353        6.22220       -0.88536
H          0.50736        6.94195       -0.40847
H          1.80880        6.75215        0.81670
H          0.76808        3.39784        2.99001
H          1.95650        4.32735        3.98555
H          0.78574        5.22075        2.97296
C         -1.69421        1.10889        0.12053
C         -2.34745       -0.09999       -0.03771
C         -1.36454       -1.06779       -0.15112
C         -0.16278       -0.39527       -0.07188
N         -0.36252        0.91586        0.09913
C          1.19930       -1.01060       -0.15102
N          2.24500        0.03300       -0.00400
C          3.14667       -0.12780        1.15354
H         -3.41426       -0.26462       -0.04697
H         -2.16325        2.07748        0.23426
H         -1.51492       -2.12747       -0.28525
H          1.32115       -1.49570       -1.14091
H          1.25405       -1.78295        0.62327
C          3.88701       -1.48637        1.15052
C          4.20547        0.96692        1.02032
C          2.36396        0.05264        2.47269
H          4.43970       -1.62004        0.19917
H          4.61784       -1.52509        1.98748
H          3.21009       -2.35230        1.28016
H          3.72334        1.94103        0.88737
H          4.88914        0.98948        1.89581
H          4.79774        0.81020        0.10156
H          1.82082        1.02082        2.47838
H          1.61922       -0.75856        2.61545
H          3.05206        0.02791        3.34439
Na         3.72652        4.68946       -1.91184
C          4.97540        7.56076       -1.60010
C          5.97242        6.08979       -0.10061
O          4.79283        6.35428       -0.86661
C          3.87567        7.76227       -2.62064
C          6.14143        7.06519        1.08886
H          4.90366        8.43524       -0.91381
H          5.94752        7.58016       -2.14526
H          5.89743        5.06901        0.32674
H          6.89629        6.10881       -0.72531
H          5.24980        7.03606        1.74858
H          7.03739        6.79661        1.68956
H          6.30067        8.11246        0.75247
H          2.89223        7.83314       -2.12008
H          4.04878        8.72300       -3.15140
H          3.88083        6.93084       -3.35289
C          1.12209        3.08594       -3.26359
C          0.73139        1.98266       -4.00920
C          1.86176        1.26502       -4.26218
C          2.90255        1.95115       -3.65624
N          2.46255        3.08148       -3.04506
C          4.32249        1.53342       -3.72114
N          4.51935        0.13370       -3.26860
C          5.96104       -0.25167       -3.29055
H         -0.26657        1.72838       -4.34833
H          0.44047        3.85378       -2.92838
H          1.94673        0.34370       -4.83080
H          4.87243        2.25622       -3.08977
H          4.61595        1.64411       -4.78086
C          6.83606        0.64747       -2.37989
C          6.05973       -1.69880       -2.80384
C          6.54302       -0.18801       -4.72944
H          6.45876        0.65438       -1.34240
H          7.88461        0.28205       -2.36591
H          6.89243        1.69266       -2.74905
H          5.47124       -2.36554       -3.46971
H          7.11741       -2.04250       -2.80607
H          5.66230       -1.78360       -1.77409
H          5.94880       -0.81488       -5.42683
H          6.57511        0.84750       -5.12662
H          7.59564       -0.54359       -4.74270
