96
speciation1373.ct
Na         2.71678        0.41401        0.91217
Mg         0.14411        2.25036       -0.61165
C          3.00593        0.53876        4.29303
C          4.90571       -0.03315        3.10842
O          3.50829        0.18494        2.99476
C          1.47853        0.61184        4.39343
C          5.45168       -0.71944        1.87303
H          3.27293       -0.23261        5.05036
H          3.43556        1.52237        4.60578
H          5.45546        0.92268        3.27306
H          5.11758       -0.74456        3.93912
H          5.40977       -0.05699        0.99485
H          6.51852       -0.97722        2.02884
H          4.87226       -1.64507        1.68065
H          1.01343        0.24659        3.46020
H          1.18545        1.23927        5.27372
H          1.00656       -0.27760        4.80605
H         -2.08378        3.89822       -0.18132
C         -0.79488        5.58979        0.09064
C         -1.06160        4.06730        0.20248
C         -0.64741        6.06153       -1.35574
H         -1.60180        6.15706        0.59813
H          0.10614        5.89862        0.65552
H         -0.33726        7.12859       -1.33878
H          0.14327        5.48251       -1.88560
C         -1.97277        5.96561       -2.09816
H         -1.11292        3.86635        1.29225
H         -2.28358        4.90759       -2.21326
H         -2.75163        6.51992       -1.53023
H         -1.87115        6.42037       -3.10310
C         -0.37830        1.79441       -3.65452
C          0.49275        1.87022       -4.72310
C          1.71304        2.25068       -4.19577
C          1.52857        2.33549       -2.81907
N          0.24826        2.05709       -2.49844
C          2.60772        2.56905       -1.77710
N          2.11938        2.18665       -0.40483
C          2.59088        3.01620        0.69885
H          0.28133        1.67783       -5.77175
H         -1.42316        1.46449       -3.73334
H          2.63148        2.39125       -4.74026
H          2.96168        3.59838       -1.88707
H          3.47219        1.92378       -2.04845
C          2.33797        4.47756        0.46323
C          1.74244        2.61490        1.92241
C          4.10031        2.81787        0.90860
H          1.35646        4.46837        0.03005
H          2.41377        5.05822        1.40645
H          2.98745        4.95026       -0.28686
H          1.71344        1.55936        2.09396
H          2.07129        3.11313        2.85036
H          0.67922        2.81761        1.75239
H          4.36735        1.76160        0.94411
H          4.66075        3.24845        0.04898
H          4.44538        3.30927        1.83876
Mg         2.61565       -2.66534        1.06680
C          2.60228       -5.30368        1.69249
C          3.18409       -3.89171        3.52538
O          3.29382       -4.13870        2.13118
C          1.12548       -5.40308        2.10203
C          3.92277       -4.94153        4.36643
H          2.62819       -5.28901        0.58332
H          3.15707       -6.22044        1.98185
H          3.65934       -2.91218        3.73854
H          2.12924       -3.79004        3.84970
H          5.00517       -4.94158        4.11844
H          3.80266       -4.70665        5.44481
H          3.51365       -5.95968        4.20201
H          0.57263       -4.49647        1.78576
H          0.66853       -6.28712        1.60959
H          1.01365       -5.55121        3.19580
C         -2.10576        0.82936        0.16886
C         -2.78747       -0.31661        0.49055
C         -1.86592       -1.32215        0.52037
C         -0.63945       -0.75207        0.21891
N         -0.80054        0.59203       -0.00779
C          0.55177       -1.68925        0.12077
N          1.92000       -1.15400       -0.02500
C          2.59681       -1.48667       -1.32253
H         -3.84940       -0.39600        0.66938
H         -2.56031        1.78362        0.02163
H         -2.07455       -2.36900        0.72834
H          0.55579       -2.25780        1.07222
H          0.31003       -2.44325       -0.65805
C          1.81539       -0.88716       -2.47649
C          4.02489       -0.90436       -1.31781
C          2.76429       -3.00735       -1.57206
H          1.69170        0.13225       -2.19199
H          2.35980       -0.95738       -3.44248
H          0.80437       -1.32132       -2.59535
H          4.66081       -1.44510       -0.59478
H          4.51122       -1.02021       -2.31206
H          4.03985        0.16060       -1.04439
H          3.43612       -3.45908       -0.81231
H          1.81728       -3.57289       -1.57681
H          3.23298       -3.17218       -2.56908
