110
speciation2486.ct
Na         5.04643        4.92703        2.65780
Mg         1.41569        2.45788       -1.54845
C          7.67640        5.87172        3.39687
C          6.80953        7.93761        2.75561
O          6.72182        6.52976        2.57583
C          7.36254        5.94591        4.90323
C          5.78088        8.68493        1.92587
H          7.65079        4.79788        3.11545
H          8.71157        6.21385        3.18047
H          6.66402        8.25714        3.80705
H          7.81021        8.27485        2.40047
H          4.76451        8.52555        2.34103
H          6.01374        9.77302        1.97241
H          5.82122        8.35935        0.86769
H          6.32800        5.59654        5.10737
H          8.07281        5.30216        5.46354
H          7.48563        6.97094        5.30895
H         -0.89680        1.48536       -0.54721
C         -1.28680        3.44457        0.23249
C         -0.31025        2.36100       -0.20243
C         -2.26297        3.76403       -0.88331
H         -1.86490        3.06129        1.10560
H         -0.75066        4.34999        0.57057
H         -1.71155        4.13151       -1.77377
H         -2.81183        2.83275       -1.14767
C         -3.27238        4.81077       -0.43015
H          0.17874        2.04838        0.72272
H         -3.82475        4.45318        0.46666
H         -2.75416        5.76112       -0.18303
H         -3.99799        4.99158       -1.24812
C          2.58949        2.91504        3.79570
C          1.81172        1.82983        3.45715
C          2.10478        1.53100        2.14372
C          3.01677        2.49245        1.70431
N          3.33493        3.28976        2.74154
C          3.63981        2.53776        0.32715
N          2.98696        3.42908       -0.67634
C          3.10781        4.92729       -0.44382
H          1.12553        1.29963        4.10452
H          2.63484        3.38468        4.76952
H          1.69564        0.70961        1.56928
H          4.72389        2.71984        0.41710
H          3.57622        1.51163       -0.08982
C          4.58683        5.34574       -0.32222
C          2.54327        5.76035       -1.60298
C          2.29357        5.41634        0.77497
H          5.14025        5.06559       -1.23970
H          4.67342        6.44711       -0.17951
H          5.08983        4.86584        0.52593
H          1.46453        5.56720       -1.73349
H          2.60357        6.84815       -1.38062
H          3.16021        5.65991       -2.51026
H          1.25841        5.05009        0.70718
H          2.71898        5.16205        1.73319
H          2.27071        6.52520        0.82247
Na         3.68785        2.37197       -2.57654
Mg         3.00022       -2.66021       -4.58282
C          6.31611        0.85301       -2.83412
C          6.27988        3.03015       -3.82135
O          5.54162        1.86520       -3.48348
C          7.05656        1.30161       -1.56760
C          7.35143        2.77957       -4.89461
H          5.62376        0.03391       -2.54682
H          7.02975        0.38246       -3.54642
H          5.56345        3.75456       -4.25343
H          6.71127        3.51591       -2.92635
H          6.89056        2.39775       -5.83014
H          7.86731        3.73689       -5.12130
H          8.12740        2.06281       -4.55288
H          6.34219        1.73379       -0.84054
H          7.55739        0.42940       -1.09426
H          7.85347        2.03891       -1.79648
H          2.31134       -3.59306       -6.92131
C          3.13618       -5.29865       -5.86774
C          3.16551       -3.82360       -6.25040
C          4.29929       -5.64625       -4.93286
H          2.17198       -5.51654       -5.35919
H          3.20201       -5.91243       -6.79240
H          5.26436       -5.42221       -5.43773
H          4.22980       -5.03481       -4.00655
C          4.27749       -7.12531       -4.55437
H          4.11281       -3.57954       -6.77683
H          3.33263       -7.37693       -4.02725
H          4.36709       -7.75813       -5.46340
H          5.13118       -7.35097       -3.88085
C          2.94161       -2.10082       -1.74747
C          2.26888       -1.35689       -0.80115
C          1.72122       -0.29881       -1.47036
C          2.09960       -0.41869       -2.78631
N          2.83899       -1.52535       -2.95611
C          1.57791        0.42632       -3.87825
N          1.73731        1.84428       -3.51736
C          1.18044        2.78464       -4.51655
H          2.09979       -1.61470        0.23920
H          3.38183       -3.06963       -1.57274
H          1.05328        0.42812       -1.06544
H          0.50484        0.17128       -3.99082
H          2.10917        0.17651       -4.82400
C         -0.29864        2.49732       -4.85788
C          1.24873        4.12048       -3.86000
C          2.02619        2.84507       -5.81009
H         -0.90260        2.42221       -3.92753
H         -0.71656        3.31709       -5.48181
H         -0.41040        1.56156       -5.44175
H          2.31850        4.25836       -3.66300
H          0.87602        4.94839       -4.49643
H          0.65151        4.06118       -2.92695
H          3.08167        3.12053       -5.58627
H          2.01966        1.88647       -6.36253
H          1.61537        3.62815       -6.48950
