83
speciation277.ct
Na         0.75835        0.26039       -0.19416
Mg        -1.93686        2.81039        4.54968
C          1.71885       -1.83829       -2.23746
C          2.75796       -2.28832       -0.22087
O          1.97267       -1.34561       -0.93725
C          1.04778       -0.76812       -3.07552
C          3.16908       -1.75951        1.13973
H          2.67707       -2.08006       -2.75603
H          1.06247       -2.73844       -2.20548
H          2.21092       -3.25022       -0.07783
H          3.71218       -2.47386       -0.76800
H          2.28281       -1.63318        1.79282
H          3.86231       -2.48901        1.61647
H          3.70272       -0.79144        1.02836
H          1.68496        0.14069       -3.10095
H          0.91617       -1.14450       -4.11265
H          0.05421       -0.51943       -2.64894
C         -0.67901        0.61595        6.05243
C          0.17356       -0.46667        5.97091
C          0.65552       -0.48960        4.68069
C          0.06564        0.57945        4.03078
N         -0.74250        1.25041        4.86603
C          0.23171        0.94345        2.60285
N         -0.27305       -0.11516        1.71775
C         -1.74800       -0.36545        1.70025
H          0.39700       -1.16846        6.76642
H         -1.25031        0.91203        6.92345
H          1.34251       -1.21827        4.25875
H          1.31607        1.08940        2.40784
H         -0.26085        1.90336        2.37697
C         -2.56253        0.90985        1.39149
C         -2.00606       -1.40423        0.60406
C         -2.27423       -0.97653        3.02437
H         -2.25694        1.35576        0.42723
H         -3.64816        0.67304        1.34319
H         -2.44867        1.66742        2.19524
H         -1.45161       -2.34059        0.83187
H         -3.09095       -1.64758        0.54482
H         -1.67406       -1.02122       -0.38148
H         -1.66645       -1.85366        3.33189
H         -2.30917       -0.24808        3.84888
H         -3.33139       -1.30036        2.91770
Na        -4.92928        3.70107        3.29334
C          1.66328        3.10848       -0.91735
C         -0.57934        2.65091       -1.60336
O          0.69787        2.11842       -1.27752
C          1.22480        4.13273        0.14746
C         -0.57661        3.43795       -2.92321
H          2.54654        2.57424       -0.51267
H          2.03026        3.63818       -1.82391
H         -1.27908        1.80257       -1.73928
H         -1.00324        3.25615       -0.77699
H         -0.29526        2.77488       -3.76815
H         -1.59250        3.84545       -3.11480
H          0.12236        4.29935       -2.89122
H          0.88673        3.61645        1.06735
H          2.08114        4.79244        0.40357
H          0.42133        4.80250       -0.22584
C         -4.67178        1.72589        7.16347
C         -4.82732        2.63966        8.18030
C         -4.41965        3.86663        7.69763
C         -4.02631        3.70873        6.42720
N         -4.16456        2.36729        6.01915
C         -3.50432        4.83506        5.58383
N         -3.13122        4.37036        4.23332
C         -2.48098        5.40110        3.37929
H         -5.19620        2.42840        9.17763
H         -4.90128        0.67112        7.23114
H         -4.41513        4.79872        8.24831
H         -2.62167        5.23137        6.12105
H         -4.29294        5.61109        5.52199
C         -1.13815        5.87572        3.98309
C         -2.18994        4.76903        2.00930
C         -3.40498        6.62145        3.15799
H         -0.46064        5.01174        4.15252
H         -0.63391        6.58954        3.29629
H         -1.27576        6.41609        4.94110
H         -3.12943        4.42257        1.52887
H         -1.70395        5.50563        1.33181
H         -1.50812        3.90290        2.11948
H         -4.36946        6.30554        2.70681
H         -3.61317        7.15969        4.10538
H         -2.92286        7.35524        2.47606
