110
speciation2195.ct
Na         0.73160       -1.74691       -0.39907
Mg         3.28093        0.22616       -1.76511
C         -1.69863       -2.01000       -2.44325
C         -0.35181       -3.90578       -1.92194
O         -0.44724       -2.49056       -1.95827
C         -2.91972       -2.31809       -1.56383
C         -0.29053       -4.55678       -3.30735
H         -1.66712       -0.90980       -2.58134
H         -1.85415       -2.34480       -3.49050
H          0.60224       -4.14484       -1.41677
H         -1.13545       -4.37541       -1.30301
H          0.53999       -4.13339       -3.90443
H         -0.12050       -5.64815       -3.17651
H         -1.24155       -4.42916       -3.85643
H         -2.74615       -3.12108       -0.82706
H         -3.78311       -2.58225       -2.21573
H         -3.20813       -1.42212       -0.98201
H          2.69950       -0.19060       -4.56987
C          0.97685        1.11515       -4.40603
C          1.94783        0.05683       -3.79876
C          1.65976        2.45061       -4.66191
H          0.51226        0.73675       -5.34203
H          0.09393        1.31117       -3.77908
H          0.88334        3.20321       -4.92132
H          2.18315        2.80093       -3.74388
C          2.60849        2.33164       -5.84380
H          1.28861       -0.82907       -3.72217
H          3.41196        1.60339       -5.64029
H          2.03862        1.97655       -6.72922
H          3.05946        3.31737       -6.06517
C          1.17829       -3.15487        2.49530
C          1.91495       -2.84548        3.61694
C          2.51006       -1.62309        3.38763
C          2.11542       -1.23662        2.12142
N          1.28291       -2.15443        1.59437
C          2.53775        0.00222        1.38004
N          1.89553        0.08943        0.03924
C          0.65035        0.90957        0.01423
H          2.02382       -3.46160        4.50152
H          0.61569       -4.06224        2.32677
H          3.18077       -1.08767        4.05215
H          3.63796       -0.01875        1.25327
H          2.30205        0.88486        2.00829
C          0.86897        2.36360        0.40427
C          0.26089        0.89213       -1.41557
C         -0.51579        0.37325        0.87154
H          1.82360        2.56383        0.01567
H          0.11663        3.04754       -0.05542
H          0.92929        2.55090        1.48936
H          0.20032       -0.14192       -1.78192
H         -0.69611        1.41300       -1.61955
H          1.09404        1.41282       -1.92019
H         -0.74510       -0.69173        0.70106
H         -0.31085        0.52952        1.95071
H         -1.44233        0.94080        0.62571
Na         6.78363       -3.08023       -3.62295
Mg         5.96064       -1.24261       -3.09241
C          4.61065        3.27767       -1.83954
C          5.47103        1.63222       -3.16531
O          4.64771        1.85635       -2.01443
C          3.74161        3.73648       -0.72248
C          6.85493        2.35035       -3.20123
H          5.61326        3.59059       -1.44813
H          4.35434        3.85021       -2.76706
H          5.70194        0.57460       -3.19094
H          4.93185        1.88375       -4.09983
H          7.44237        2.10961       -2.27905
H          7.45238        2.05767       -4.08155
H          6.75728        3.45400       -3.28083
H          3.89073        3.06145        0.14719
H          4.01309        4.76728       -0.41475
H          2.73893        3.82311       -1.17104
H          7.13493       -0.00827       -5.00464
C          7.22903       -1.97797       -5.82689
C          7.30271       -1.03099       -4.61414
C          5.83490       -1.93380       -6.45956
H          7.99238       -1.68030       -6.57654
H          7.47095       -3.02215       -5.54495
H          5.06313       -2.17388       -5.69714
H          5.63915       -0.91238       -6.85307
C          5.72181       -2.94928       -7.59284
H          8.31979       -1.06162       -4.17024
H          6.48889       -2.74989       -8.37029
H          5.86481       -3.97778       -7.19529
H          4.71418       -2.88755       -8.05448
C          8.79137       -2.92000       -1.57818
C          9.16979       -2.55638       -0.31379
C          8.06788       -1.93297        0.24703
C          7.05010       -1.93232       -0.70239
N          7.51755       -2.55487       -1.80481
C          5.64658       -1.31670       -0.49353
N          4.65146       -1.44904       -1.60797
C          4.06267       -2.86143       -1.71283
H         10.13948       -2.73361        0.13663
H          9.42327       -3.43024       -2.30767
H          8.02581       -1.53744        1.25569
H          5.82018       -0.23714       -0.32730
H          5.22898       -1.69976        0.45572
C          3.31178       -3.24855       -0.44064
C          3.08683       -2.89957       -2.88122
C          5.02042       -4.07257       -1.93920
H          2.63939       -2.43690       -0.25582
H          2.74668       -4.19979       -0.57406
H          3.97399       -3.40713        0.43217
H          3.58773       -2.57849       -3.82052
H          2.68295       -3.92251       -3.04417
H          2.23935       -2.25869       -2.63708
H          5.34434       -4.18472       -2.97492
H          5.82263       -4.16929       -1.18658
H          4.45857       -5.02918       -1.85123
