95
speciation1182.ct
Na         1.20183        0.12281        0.30148
Mg         0.27180       -4.71648       -3.27786
C         -1.06486        2.29738        0.58405
C          0.91517        2.95403        1.66002
O          0.20621        1.87876        1.06788
C         -0.99269        3.22736       -0.63488
C          2.21638        2.44780        2.24203
H         -1.63467        1.39124        0.29982
H         -1.66811        2.77144        1.39433
H          1.17190        3.73722        0.91340
H          0.32917        3.38958        2.50088
H          2.76624        3.29328        2.70944
H          2.83542        2.01593        1.44071
H          2.01912        1.66758        3.00155
H         -0.39231        2.75917       -1.44048
H         -0.55557        4.21396       -0.37173
H         -2.01896        3.42296       -1.01561
H          1.55120       -4.04568       -5.48008
C          1.35501       -6.12472       -6.00226
C          1.57824       -5.02429       -4.95384
C         -0.00248       -5.99040       -6.70172
H          2.16223       -6.05644       -6.76565
H          1.42468       -7.11974       -5.52749
H         -0.81519       -6.05902       -5.94753
H         -0.06688       -5.00549       -7.21343
C         -0.19727       -7.09526       -7.74223
H          2.59383       -5.14424       -4.52102
H          0.58509       -7.03441       -8.52980
H         -0.14654       -8.09587       -7.26051
H         -1.19171       -6.98709       -8.22506
C         -0.01778       -1.86379       -3.76349
C         -0.20496       -0.60539       -3.24374
C         -0.26474       -0.74735       -1.88015
C         -0.09535       -2.09486       -1.62068
N          0.03712       -2.78586       -2.77927
C         -0.05111       -2.72145       -0.25156
N         -0.17827       -1.70139        0.81877
C         -0.14298       -2.25589        2.20894
H         -0.28220        0.32880       -3.78840
H          0.07386       -2.09415       -4.81370
H         -0.41262        0.04949       -1.17350
H          0.91917       -3.24519       -0.17689
H         -0.88064       -3.45412       -0.20662
C          1.21943       -2.90372        2.51817
C         -0.37106       -1.10912        3.20992
C         -1.27362       -3.30256        2.46816
H          2.03040       -2.16104        2.37876
H          1.25458       -3.25743        3.57026
H          1.40990       -3.78858        1.87884
H         -1.36792       -0.63962        3.05282
H         -0.33913       -1.48628        4.25645
H          0.40788       -0.32851        3.09505
H         -2.28233       -2.83659        2.38597
H         -1.23132       -4.17233        1.78784
H         -1.18587       -3.71901        3.49795
Na        -2.20399       -1.03434        0.58101
Mg         2.29047       -0.26466       -2.72136
H          0.33449       -6.05397       -0.98175
C         -0.41605       -7.68414       -2.20410
C         -0.31962       -6.19207       -1.86564
C          0.92479       -8.32857       -2.58430
H         -0.82681       -8.22441       -1.32006
H         -1.12907       -7.81889       -3.04587
H          0.74076       -9.40281       -2.81039
H          1.32653       -7.84797       -3.49065
C          1.97803       -8.24535       -1.48010
H         -1.33161       -5.84423       -1.56738
H          2.25638       -7.19086       -1.27913
H          1.60210       -8.71597       -0.54776
H          2.89552       -8.77875       -1.80622
C          6.01414        2.50309       -3.80715
C          5.01200        1.97570       -4.58943
C          3.95277        1.65845       -3.75549
C          4.29880        1.97005       -2.50437
N          5.59086        2.53893       -2.46706
C          3.46788        1.73115       -1.26403
N          3.10178        0.30196       -1.05356
C          4.23040       -0.65489       -0.79577
H          5.06588        1.81946       -5.66186
H          6.98260        2.83374       -4.15990
H          3.01955        1.20860       -4.06331
H          2.53292        2.31441       -1.37404
H          4.01097        2.13741       -0.39069
C          5.04033       -0.26649        0.46967
C          3.61606       -2.03869       -0.57794
C          5.21803       -0.79529       -1.98155
H          4.38753       -0.23285        1.36772
H          5.85079       -1.00749        0.65165
H          5.53871        0.71830        0.34984
H          3.04771       -2.34990       -1.48006
H          4.40436       -2.79814       -0.38003
H          2.92791       -2.01824        0.28627
H          4.67406       -1.02539       -2.92231
H          5.85605        0.09300       -2.12126
H          5.94208       -1.61431       -1.79367
