110
speciation2118.ct
Na         1.00160        0.07332       -0.06798
Mg         5.36008        2.34511        4.04678
C         -1.80270       -0.28026        1.21615
C         -1.91654       -0.68309       -1.10348
O         -1.31840        0.07332       -0.06798
C         -1.49262       -1.72263        1.63718
C         -1.31853       -0.27856       -2.44400
H         -1.29695        0.39229        1.94091
H         -2.89005       -0.06376        1.30332
H         -1.73837       -1.77204       -0.99044
H         -3.00779       -0.46847       -1.14152
H         -0.23686       -0.53131       -2.47146
H         -1.83164       -0.83021       -3.26114
H         -1.44461        0.81119       -2.61279
H         -0.40940       -1.93402        1.52389
H         -1.77773       -1.86351        2.70086
H         -2.08014       -2.45474        1.04650
H          7.85089        1.13490        3.70293
C          7.73337        2.27305        1.83291
C          7.07808        1.49289        2.98940
C          8.47927        3.49173        2.35914
H          8.44489        1.61593        1.28429
H          6.93381        2.58509        1.12655
H          7.75637        4.07129        2.94540
H          9.32535        3.14885        2.99746
C          9.01797        4.41735        1.26655
H          6.62762        0.59490        2.54473
H          9.74302        3.90749        0.59775
H          8.17919        4.82302        0.66165
H          9.53408        5.27271        1.75504
C          3.47188        4.20944        2.56453
C          2.64347        4.37970        1.47146
C          2.66239        3.19800        0.75185
C          3.49518        2.34624        1.44364
N          4.02623        2.97659        2.54951
C          3.82036        0.89945        1.13482
N          3.37160        0.07332       -0.06798
C          3.85756       -1.35296        0.22739
H          2.08188        5.27358        1.23455
H          3.66645        4.94850        3.32838
H          2.10788        2.98479       -0.15071
H          3.35704        0.46985        2.03687
H          4.91112        0.88453        1.19846
C          3.21724       -1.98577        1.49989
C          3.49585       -2.26283       -0.95667
C          5.40477       -1.47638        0.47724
H          2.11410       -1.96162        1.46009
H          3.55397       -3.04070        1.61575
H          3.56773       -1.51809        2.44399
H          3.99302       -1.93995       -1.88936
H          3.83052       -3.30734       -0.75202
H          2.39924       -2.27992       -1.11402
H          6.04024       -0.98957       -0.25892
H          5.72570       -1.04187        1.43710
H          5.71311       -2.54253        0.55902
Na         3.99472       -1.49695       -4.62237
Mg         4.03492        0.17963       -1.94116
C          6.04309        5.06673        5.40915
C          6.60851        3.06610        6.57647
O          5.84093        3.65407        5.52481
C          7.49781        5.58563        5.46373
C          6.18775        3.53058        7.98492
H          5.60697        5.39423        4.45029
H          5.45673        5.58630        6.20136
H          6.44718        1.97441        6.55005
H          7.69969        3.19782        6.42261
H          5.11217        3.32526        8.16386
H          6.78006        2.98312        8.75083
H          6.37816        4.61295        8.13836
H          8.13820        5.10455        4.71290
H          7.50408        6.67966        5.26998
H          7.96347        5.43239        6.45807
H          4.07027        0.03705        4.34450
C          3.23082        1.24011        5.96306
C          4.41170        0.76636        5.10571
C          2.51992        0.05885        6.64821
H          3.60893        1.94471        6.73481
H          2.50495        1.77818        5.31779
H          2.11348       -0.61986        5.86741
H          3.23782       -0.51223        7.27704
C          1.36789        0.52804        7.53758
H          5.15306        0.26826        5.76504
H          1.75224        1.14360        8.37906
H          0.63813        1.12593        6.95178
H          0.83941       -0.35335        7.96211
C          2.30943       -0.54015       -7.13303
C          2.02201        0.73386       -7.59618
C          2.59949        1.62266       -6.70978
C          3.25253        0.85504       -5.76084
N          3.06529       -0.44974       -6.02638
C          4.05742        1.38114       -4.59169
N          4.69825        0.28594       -3.81434
C          6.17318        0.18478       -3.90729
H          1.41479        0.97970       -8.45609
H          1.99782       -1.47323       -7.58210
H          2.57371        2.69755       -6.76888
H          3.38235        1.94993       -3.92242
H          4.80699        2.09623       -4.98223
C          6.83625        1.39351       -3.21241
C          6.57533       -1.09741       -3.18636
C          6.67495        0.03977       -5.36185
H          6.47155        1.48814       -2.16654
H          7.94104        1.27577       -3.19104
H          6.61939        2.34294       -3.74235
H          6.19041       -2.00178       -3.70106
H          7.67529       -1.18451       -3.05867
H          6.09855       -1.08056       -2.22071
H          6.21381       -0.85282       -5.83938
H          6.44883        0.92578       -5.98286
H          7.77872       -0.10661       -5.36761
