96
speciation1347.ct
Na         3.01672       -1.80768       -1.29164
Mg         5.52199        3.23386       -2.23926
C          2.99501       -3.69840       -3.74862
C          0.83461       -3.29932       -2.91229
O          2.23144       -3.29386       -2.62839
C          4.44879       -3.82809       -3.33826
C          0.40558       -2.26180       -3.95809
H          2.66205       -4.70038       -4.11133
H          2.93879       -2.95182       -4.57053
H          0.48877       -4.31745       -3.21356
H          0.30331       -3.07468       -1.96550
H          0.77880       -2.52902       -4.97014
H         -0.70379       -2.22910       -4.01938
H          0.77991       -1.25559       -3.67802
H          4.54863       -4.57795       -2.52621
H          5.05684       -4.15323       -4.20947
H          4.82623       -2.84767       -2.98151
H          7.55091        2.05200       -3.39125
C          6.09212        1.04727       -4.57141
C          6.54566        1.60469       -3.21684
C          4.72226        0.38417       -4.47963
H          6.06722        1.86981       -5.31791
H          6.84055        0.29670       -4.91406
H          4.76101       -0.43858       -3.73542
H          3.97933        1.14152       -4.16270
C          4.30098       -0.20227       -5.82477
H          6.66545        0.77333       -2.49755
H          4.26348        0.59076       -6.60221
H          5.01336       -0.99351       -6.14639
H          3.29170       -0.65387       -5.72706
C          2.85489        4.28520       -1.36000
C          1.62110        4.01557       -0.80167
C          1.56499        2.66483       -0.63589
C          2.78268        2.16342       -1.05277
N          3.58352        3.15780       -1.51366
C          3.10192        0.71033       -1.14303
N          3.38337       -0.04549        0.08804
C          2.43491       -0.40059        1.18534
H          0.84206        4.72887       -0.56789
H          3.17511        5.27629       -1.64079
H          0.70995        2.11438       -0.27534
H          4.02089        0.62009       -1.75628
H          2.28243        0.23165       -1.71636
C          1.16759       -1.10410        0.65742
C          3.17287       -1.39972        2.10618
C          2.04944        0.79527        2.08143
H          1.41856       -2.05514        0.14424
H          0.49951       -1.37879        1.50336
H          0.60249       -0.45347       -0.03781
H          4.07386       -0.92772        2.55571
H          2.51765       -1.73201        2.94360
H          3.49636       -2.30411        1.54772
H          2.94723        1.34546        2.42863
H          1.35927        1.49494        1.60710
H          1.49643        0.43248        2.97714
Mg         5.25714       -0.34128        0.68936
C          7.93890       -0.34945        0.17461
C          7.19273       -1.95208        1.77795
O          7.08384       -0.62964        1.27556
C          7.85686       -1.34088       -0.99556
C          8.51628       -2.19176        2.50806
H          7.63487        0.64427       -0.21515
H          8.98848       -0.22575        0.51532
H          6.38440       -2.09077        2.52652
H          7.00896       -2.72063        1.00168
H          8.62162       -1.47747        3.35206
H          8.53353       -3.22648        2.91083
H          9.38052       -2.07846        1.82226
H          6.80400       -1.45809       -1.32838
H          8.46422       -0.95967       -1.84303
H          8.27849       -2.32980       -0.72109
C          5.12919        4.96424       -4.67621
C          5.87658        6.04172       -5.11819
C          6.87441        6.24903       -4.17891
C          6.68415        5.29803       -3.19839
N          5.63231        4.52325       -3.50911
C          7.51157        5.08307       -1.94034
N          6.87030        4.08764       -1.03434
C          6.54075        4.56676        0.33496
H          5.72112        6.59347       -6.03002
H          4.29499        4.50230       -5.18720
H          7.64348        7.00738       -4.20815
H          7.64021        6.06722       -1.45373
H          8.52535        4.73370       -2.22688
C          5.59538        5.78093        0.29700
C          5.86592        3.40826        1.09170
C          7.80907        4.96455        1.12325
H          4.75503        5.56395       -0.34828
H          5.20750        6.02421        1.30779
H          6.08136        6.69408       -0.09979
H          6.55919        2.54238        1.17067
H          5.58418        3.72047        2.11949
H          4.95078        3.06766        0.57779
H          8.51360        4.11115        1.19904
H          8.34113        5.81627        0.65235
H          7.53426        5.28427        2.15332
