95
speciation1276.ct
Na         4.02978       -0.73755        2.14629
Mg         4.10745       -1.39024       -1.40822
C          4.60586       -2.84245        4.33137
C          3.73449       -0.87513        5.28332
O          4.59645       -1.42073        4.28978
C          3.24185       -3.51356        4.08086
C          3.68243        0.65320        5.21429
H          5.29095       -3.18067        3.52776
H          5.04343       -3.20706        5.28709
H          2.68516       -1.22111        5.17591
H          4.12593       -1.14006        6.28887
H          3.14802        0.99518        4.30381
H          3.11549        1.03949        6.09090
H          4.70009        1.09418        5.23769
H          2.76531       -3.11119        3.16258
H          3.38700       -4.60764        3.95556
H          2.55484       -3.38527        4.94438
H          3.83530       -4.12125       -1.45991
C          1.85191       -3.62598       -0.78643
C          3.36258       -3.38182       -0.77949
C          1.27351       -3.33492       -2.16622
H          1.61719       -4.67008       -0.48838
H          1.36708       -2.99481       -0.02849
H          1.55780       -2.31353       -2.46801
H          1.67897       -4.06101       -2.90549
C         -0.24565       -3.39699       -2.14407
H          3.72272       -3.59940        0.25120
H         -0.58871       -4.40961       -1.84776
H         -0.63446       -2.64772       -1.42025
H         -0.64018       -3.15319       -3.15245
C         -0.70174        1.14837       -2.12671
C          0.35493        1.59070       -2.87334
C          1.46097        1.25593       -2.15732
C          1.09105        0.63090       -1.00352
N         -0.25794        0.58507       -0.97937
C          1.96200        0.01862        0.09644
N          3.45090       -0.03964       -0.04340
C          4.11537        1.44409        0.05793
H          0.34930        2.08719       -3.83763
H         -1.73712        1.23062       -2.41908
H          2.40964        1.44681       -2.46515
H          1.61906       -1.00274        0.14111
H          1.68707        0.45853        1.07524
C          3.77514        2.10842        1.42709
C          5.68458        1.52345       -0.08520
C          3.79751        2.58795       -0.97190
H          4.10818        1.48658        2.27544
H          4.30164        3.08691        1.54941
H          2.69726        2.34521        1.52414
H          6.10037        0.88474       -0.86567
H          6.11451        2.47850       -0.46611
H          6.20333        1.85714        0.83877
H          4.21495        2.36313       -1.97542
H          2.77633        2.99285       -0.95382
H          4.35693        3.53370       -0.72535
Na        -1.46338       -0.24597        0.55157
Mg         6.69054       -3.35122       -1.41165
H          3.94211       -1.68304       -4.17016
C          4.12109        0.45649       -4.28101
C          3.58765       -0.81734       -3.57577
C          5.62939        0.57923       -4.18558
H          3.77509        0.50061       -5.33627
H          3.73993        1.37314       -3.85105
H          5.91587        0.48667       -3.12137
H          6.10918       -0.23127       -4.77035
C          6.09408        1.95658       -4.67004
H          2.48306       -0.77646       -3.68761
H          5.87566        2.09881       -5.74903
H          5.58072        2.76346       -4.09812
H          7.18355        2.05847       -4.49585
C          7.28662       -6.45975       -1.02802
C          7.91219       -7.22145       -1.93026
C          8.22424       -6.30215       -2.95864
C          7.69212       -5.05324       -2.54557
N          7.27686       -5.24802       -1.54764
C          7.07974       -2.85935       -2.48006
N          6.10423       -1.45443       -1.27567
C          7.01304       -1.43102        0.00548
H          8.06893       -8.28471       -1.79420
H          6.82550       -6.69901       -0.06876
H          8.73674       -6.57697       -3.86027
H          8.10135       -2.43349       -2.57508
H          6.68471       -2.67180       -3.49833
C          8.37336       -0.72165       -0.28294
C          6.50485       -0.87114        1.36295
C          7.29267       -2.87670        0.50167
H          8.25760        0.35519       -0.52369
H          9.04143       -0.78245        0.60510
H          8.94734       -1.18025       -1.10580
H          5.71420       -1.51363        1.71053
H          7.30485       -0.98180        2.13078
H          6.32188        0.13350        1.64841
H          6.30080       -3.39412        0.54349
H          8.03951       -3.38212       -0.12350
H          7.73520       -2.96352        1.51703
