110
speciation2396.ct
Na         0.14039        1.05262       -1.06996
Mg         8.18721       -2.98320       -4.76177
C          0.02878        4.27652       -1.89837
C         -2.07213        3.14147       -1.86945
O         -0.68770        3.10169       -1.51303
C         -0.24365        5.49802       -0.99658
C         -2.38514        3.44940       -3.34869
H          1.10553        4.05566       -1.81344
H         -0.11885        4.54198       -2.96626
H         -2.47840        2.13016       -1.66405
H         -2.63544        3.83927       -1.20979
H         -1.78730        2.79878       -4.01957
H         -3.46491        3.27589       -3.55053
H         -2.19683        4.51677       -3.59554
H          0.04462        5.27079        0.04938
H          0.37433        6.35529       -1.34876
H         -1.30260        5.83982       -1.01116
H          6.93509       -2.90641       -7.20998
C          5.56900       -1.44000       -6.39794
C          6.50874       -2.65857       -6.21502
C          6.28807       -0.25426       -7.04941
H          4.74808       -1.74112       -7.09094
H          5.07993       -1.15029       -5.45141
H          7.16511        0.07568       -6.45207
H          6.64126       -0.61483       -8.03645
C          5.36067        0.94473       -7.29270
H          5.85918       -3.51693       -5.93321
H          5.74705        1.54461       -8.14268
H          4.32460        0.62799       -7.54263
H          5.34246        1.61312       -6.41102
C         -2.19494       -1.09922       -0.71580
C         -2.33714       -2.43296       -0.37972
C         -1.06249       -2.91562       -0.13687
C         -0.21551       -1.85224       -0.34237
N         -0.87716       -0.75178       -0.67461
C          1.26205       -1.86543       -0.21972
N          1.80023       -0.49076       -0.38239
C          2.22264        0.14675        0.90600
H         -3.26349       -2.98584       -0.31742
H         -2.99033       -0.41639       -0.97872
H         -0.80827       -3.92888        0.15688
H          1.69427       -2.54498       -0.97472
H          1.49794       -2.31465        0.76790
C          3.12922       -0.72258        1.83654
C          3.03818        1.34621        0.47803
C          1.00669        0.59480        1.73407
H          3.96118       -1.17172        1.28423
H          3.57534       -0.09518        2.64110
H          2.58131       -1.52116        2.38113
H          2.47285        1.99494       -0.22128
H          3.44567        1.92988        1.32659
H          3.86707        0.91592       -0.06785
H          0.34818        1.26803        1.15444
H          0.41524       -0.28813        2.05944
H          1.33760        1.13555        2.64779
Na         5.18695       -2.40778        0.14037
Mg         3.39487       -0.35588       -1.78649
C          1.64203        0.80833       -3.87886
C          3.75780        1.90023       -3.72869
O          2.79405        1.07661       -3.07615
C          1.93154        0.27528       -5.29432
C          3.30000        3.33599       -4.00221
H          1.03408        0.04799       -3.35126
H          0.99456        1.71403       -3.94107
H          4.62870        2.02009       -3.08152
H          4.11871        1.42264       -4.65005
H          3.07747        3.85991       -3.05132
H          4.12935        3.88123       -4.50638
H          2.41984        3.37755       -4.67422
H          2.59254       -0.61276       -5.23978
H          0.98232       -0.00726       -5.79499
H          2.39953        1.05274       -5.93593
H         10.28397       -1.32326       -3.98756
C         11.24340       -1.41596       -5.88742
C         10.36025       -2.08515       -4.79164
C         11.56697       -2.30249       -7.09604
H         10.74649       -0.49162       -6.24965
H         12.22148       -1.10547       -5.44382
H         12.16598       -1.70777       -7.82721
H         12.18376       -3.17969       -6.79886
C         10.28537       -2.77109       -7.76314
H         10.96553       -2.92182       -4.37842
H          9.72556       -3.42065       -7.05918
H          9.66035       -1.89268       -8.03089
H         10.51965       -3.35004       -8.67888
C          8.19228       -4.79602       -2.30436
C          7.51612       -5.17413       -1.15455
C          6.32687       -4.49116       -1.16055
C          6.32272       -3.71616       -2.31357
N          7.46540       -3.91464       -3.03404
C          5.22272       -2.73378       -2.67650
N          5.20548       -1.53779       -1.78807
C          6.42461       -0.65593       -1.87422
H          7.84973       -5.84748       -0.37891
H          9.18163       -5.13902       -2.56413
H          5.55457       -4.53909       -0.40400
H          4.25330       -3.27365       -2.59461
H          5.31034       -2.44458       -3.72688
C          6.68276       -0.19927       -3.32072
C          6.20076        0.56538       -0.98948
C          7.72340       -1.28697       -1.31869
H          5.76860        0.22430       -3.75491
H          7.49270        0.55681       -3.37235
H          6.99639       -1.04904       -3.95725
H          6.00843        0.24600        0.05839
H          7.08448        1.23781       -0.99181
H          5.37864        1.16263       -1.37560
H          7.56331       -1.71399       -0.30768
H          8.17710       -2.02318       -1.98011
H          8.52594       -0.52098       -1.25792
