83
speciation273.ct
Na         1.22080        0.35899        0.16202
Mg        -2.98858       -2.39239        0.59190
C         -0.89739        2.03122       -1.11959
C          1.15388        3.24669       -0.93005
O          0.32995        2.21184       -0.40899
C         -0.78255        1.92131       -2.65247
C          0.55514        4.64551       -0.70151
H         -1.33799        1.08097       -0.76249
H         -1.62932        2.82268       -0.84475
H          2.11720        3.22017       -0.38698
H          1.40422        3.09441       -2.00082
H          0.40218        4.82553        0.38334
H          1.24800        5.41994       -1.09561
H         -0.41451        4.76820       -1.22795
H         -0.04688        1.13935       -2.92965
H         -1.77202        1.65176       -3.08014
H         -0.49331        2.89125       -3.11124
C         -2.44131       -4.02136        2.99059
C         -1.43317       -4.52511        3.78276
C         -0.26006       -3.93390        3.36203
C         -0.61156       -3.06470        2.34043
N         -1.93775       -3.12909        2.11280
C          0.33840       -2.18537        1.57788
N          0.03901       -0.75412        1.75931
C          0.16532       -0.19896        3.15207
H         -1.53605       -5.27243        4.56217
H         -3.47817       -4.31606        3.02106
H          0.73033       -4.11139        3.75508
H          0.23119       -2.43481        0.50243
H          1.38549       -2.40119        1.85994
C          1.57247       -0.43547        3.73410
C         -0.09886        1.31097        3.06788
C         -0.89354       -0.75327        4.14959
H          2.34886       -0.00031        3.06989
H          1.66126        0.02364        4.74359
H          1.77625       -1.51817        3.86306
H         -1.12516        1.49892        2.68303
H         -0.02527        1.77636        4.07715
H          0.63570        1.80701        2.39535
H         -1.92261       -0.66955        3.73944
H         -0.70803       -1.78719        4.46589
H         -0.85973       -0.19872        5.11168
Na        -1.99324       -0.46533        1.17344
C          3.29731       -1.65379       -0.76709
C          4.26638        0.52727       -0.60751
O          3.07734       -0.24496       -0.74764
C          4.12874       -2.21032        0.40025
C          5.19620        0.42241       -1.83189
H          2.30266       -2.13490       -0.72303
H          3.72875       -1.97079       -1.74243
H          3.97937        1.59164       -0.51641
H          4.81412        0.28156        0.32459
H          4.68230        0.78991       -2.74491
H          6.10584        1.03969       -1.66627
H          5.53945       -0.61916       -2.00679
H          3.69501       -1.89330        1.36983
H          4.13807       -3.32001        0.35260
H          5.18844       -1.88239        0.34229
C         -3.64156       -1.55876       -2.21046
C         -4.60997       -0.92273       -2.96197
C         -5.63789       -0.61011       -2.09808
C         -5.24965       -1.07310       -0.85616
N         -4.03941       -1.65569       -0.92899
C         -6.03205       -0.94612        0.40888
N         -7.32246       -1.62801        0.24407
C         -8.19702       -1.66713        1.43631
H         -4.56666       -0.69816       -4.01981
H         -2.69109       -1.92118       -2.58096
H         -6.55723       -0.09487       -2.34304
H         -5.43543       -1.41115        1.21908
H         -6.17747        0.13278        0.61909
C         -8.62219       -0.24901        1.87283
C         -9.46058       -2.45156        1.04309
C         -7.51507       -2.40318        2.60888
H         -9.12578        0.28128        1.03565
H         -9.33057       -0.30320        2.72801
H         -7.75347        0.35564        2.20368
H         -9.19242       -3.47422        0.70040
H        -10.15530       -2.54199        1.90647
H         -9.99789       -1.93892        0.21596
H         -7.19094       -3.41707        2.28955
H         -6.63327       -1.84715        2.98676
H         -8.21760       -2.50781        3.46245
