53
speciation901.ct
Na         1.13019       -0.17121        0.07767
C         -2.03375       -0.91507        0.35466
C         -3.11773       -0.05550        0.32455
C         -2.61338        1.22042        0.12666
C         -1.25075        1.06489        0.02914
N         -0.90351       -0.20636        0.18075
C         -0.22040        2.10551       -0.29136
N          0.98998        1.94750        0.54501
C          2.12105        2.82934        0.15579
H         -4.16037       -0.32237        0.42804
H         -2.07353       -1.98682        0.50188
H         -3.17076        2.13554        0.02732
H         -0.66355        3.11741       -0.23446
H          0.04901        1.87149       -1.33958
C          1.77519        4.31048        0.38600
C          3.33284        2.48059        1.05363
C          2.53372        2.61694       -1.31645
H          1.49223        4.48404        1.44582
H          2.64673        4.95599        0.14049
H          0.93920        4.63598       -0.26501
H          3.64299        1.42294        0.92790
H          4.20574        3.12454        0.79933
H          3.09270        2.64494        2.12560
H          2.70777        1.54221       -1.51099
H          1.75782        2.96962       -2.02371
H          3.45623        3.18985       -1.55455
Na         5.49335       -4.12566       -2.13992
Li         1.86842        0.22694        0.30453
C          6.88235       -1.38699       -1.68334
C          6.66394       -0.04916       -1.41624
C          5.30106        0.11428       -1.33114
C          4.74401       -1.13159       -1.56365
N          5.71439       -2.03798       -1.78242
C          3.28626       -1.47756       -1.58028
N          2.69551       -1.44422       -0.23957
C          2.86658       -2.51928        0.75562
H          7.41276        0.72061       -1.28884
H          7.84693       -1.85494       -1.79606
H          4.80114        1.04495       -1.13228
H          3.12100       -2.46484       -2.04685
H          2.75516       -0.74567       -2.22945
C          4.30269       -2.53607        1.30054
C          1.90651       -2.21981        1.92131
C          2.50613       -3.89521        0.16001
H          4.57291       -1.53680        1.70389
H          4.39974       -3.28827        2.11186
H          5.02526       -2.81441        0.51297
H          0.85265       -2.20264        1.56816
H          1.99272       -2.99114        2.71651
H          2.13691       -1.22844        2.36873
H          1.46718       -3.88835       -0.23739
H          3.19793       -4.17430       -0.66119
H          2.58097       -4.68689        0.93433
