81
speciation652.ct
Na         1.45901       -0.93466       -0.39098
Mg         1.58947        4.12070       -2.27410
C         -0.53510        6.37883       -3.00012
C          1.76972        6.93880       -3.13411
O          0.79684        6.02140       -2.59549
C         -0.77527        6.65502       -4.50598
C          1.63366        8.39840       -2.63273
H         -1.21329        5.56425       -2.69588
H         -0.88081        7.26462       -2.41750
H          2.76916        6.59700       -2.83067
H          1.78263        6.92489       -4.24535
H          1.72207        8.45680       -1.53059
H          2.44977        9.02179       -3.07093
H          0.68087        8.87240       -2.94544
H         -0.46272        5.78769       -5.12004
H         -1.85450        6.84795       -4.67633
H         -0.24767        7.57091       -4.85528
H          1.24888        3.68432       -4.86086
C          2.61866        2.02999       -4.68898
C          2.15466        3.44843       -4.26909
C          1.64966        0.89156       -4.40832
H          2.89478        2.03424       -5.76322
H          3.48066        1.71389       -4.13332
H          2.16581       -0.06400       -4.65228
H          1.40871        0.86149       -3.33587
C          0.39157        0.97487       -5.24430
H          2.92416        4.18525       -4.57815
H         -0.16945        1.90209       -5.01792
H          0.66593        0.94884       -6.32033
H         -0.24698        0.09967       -5.00800
C         -0.59907        2.50972       -1.95775
C         -1.27028        1.44045       -1.43807
C         -0.35190        0.69473       -0.73016
C          0.91085        1.32033       -0.82811
N          0.68540        2.48194       -1.57265
C          2.18565        0.88704        0.10546
N          3.40148       -0.06832       -0.06589
C          3.79842       -1.39328       -0.59322
H         -2.33855        1.26670       -1.54745
H         -1.03835        3.30538       -2.54185
H         -0.61264       -0.17259       -0.14914
H          2.66924        1.85709        0.27081
H          1.74668        0.67509        1.10287
C          3.55105       -1.46396       -2.10718
C          5.30780       -1.51736       -0.32509
C          3.13504       -2.59821        0.14967
H          4.09963       -0.64376       -2.61852
H          3.91408       -2.43287       -2.51368
H          2.47529       -1.36530       -2.34725
H          5.50522       -1.46272        0.77143
H          5.70294       -2.49107       -0.69249
H          5.87131       -0.69762       -0.81561
H          3.27346       -2.50094        1.25004
H          2.06493       -2.78337       -0.04257
H          3.60876       -3.55161       -0.17610
Mg         4.06481        1.37192       -1.26831
C          5.48208        2.74481       -3.59351
C          5.75213        4.00668       -4.07928
C          5.18392        4.89494       -3.19673
C          4.60441        4.13747       -2.20048
N          4.72813        2.81216       -2.47073
C          4.02473        4.73620       -0.95075
N          2.68670        4.23249       -0.66882
C          2.04994        4.72945        0.60922
H          6.32254        4.25814       -4.96616
H          5.82165        1.81900       -4.04220
H          5.23451        5.97459       -3.25099
H          4.70415        4.43539       -0.13331
H          4.02351        5.83830       -1.03542
C          1.83646        6.25276        0.58181
C          0.63900        4.11392        0.83932
C          2.88714        4.34096        1.85353
H          1.18621        6.52553       -0.26733
H          1.32167        6.59120        1.50677
H          2.79226        6.80196        0.51446
H          0.67445        3.02225        0.99589
H          0.18139        4.50847        1.77377
H         -0.06120        4.36466        0.01567
H          3.00780        3.24000        1.92749
H          3.88864        4.80744        1.84735
H          2.38040        4.67089        2.78568
