95
speciation1168.ct
Na         5.30525       -0.27860        2.87936
Mg         2.50301        4.89016       -0.97689
C          5.61593       -1.96996        5.23101
C          3.48842       -1.12123        5.75227
O          4.69933       -0.89228        5.03312
C          6.92064       -1.77782        4.45128
C          2.85015       -2.52045        5.60264
H          5.88364       -2.06510        6.30410
H          5.21401       -2.92295        4.82221
H          3.67586       -0.93509        6.83566
H          2.75023       -0.36290        5.43052
H          3.47858       -3.31149        6.06688
H          1.88126       -2.54942        6.14275
H          2.68130       -2.75904        4.53264
H          7.44451       -0.85339        4.76583
H          7.58531       -2.64983        4.63645
H          6.74657       -1.76207        3.35601
H          3.51164        7.36650       -1.14632
C          4.89046        6.21898       -2.39446
C          3.95229        6.34635       -1.19509
C          4.19114        6.48455       -3.72541
H          5.71354        6.95237       -2.27125
H          5.31942        5.19304       -2.39923
H          3.41106        5.73015       -3.87585
H          3.74102        7.50222       -3.72234
C          5.15959        6.36807       -4.89608
H          4.56372        6.17023       -0.29059
H          5.97745        7.11125       -4.79711
H          5.59279        5.34531       -4.93331
H          4.61749        6.55776       -5.84704
C          6.65160       -0.59928        0.05806
C          6.96867       -0.21592       -1.22449
C          6.41891        1.02887       -1.42393
C          5.77542        1.38572       -0.25260
N          5.92422        0.34829        0.67919
C          5.03881        2.77663       -0.13734
N          3.79190        3.01316       -1.00088
C          2.73364        2.01362       -0.82311
H          7.54261       -0.78916       -1.94168
H          6.93189       -1.53691        0.51886
H          6.48701        1.61668       -2.33003
H          4.87861        3.03275        0.92026
H          5.78741        3.54304       -0.43051
C          2.35214        1.94210        0.67326
C          1.50817        2.47341       -1.64824
C          3.09710        0.64464       -1.41689
H          1.73441        2.80477        0.96524
H          3.08139        2.36747        1.34412
H          2.70455        1.00430        1.13307
H          1.73884        2.52335       -2.72280
H          0.64892        1.77753       -1.49475
H          1.16969        3.44484       -1.27972
H          3.44755        0.74212       -2.46367
H          3.83487        0.07558       -0.83380
H          2.19587       -0.02687       -1.42049
Na         1.63162        8.50810        1.58687
Mg         4.43750        2.90743       -2.85012
H          0.55481        6.38569       -2.59550
C         -0.53415        4.66043       -3.28487
C          0.80182        5.31251       -2.77565
C         -1.72203        4.75166       -2.31296
H         -0.85474        5.18037       -4.21990
H         -0.34657        3.59974       -3.54863
H         -1.47525        4.21642       -1.39898
H         -1.94858        5.81814       -2.09809
C         -2.99627        4.05995       -2.80572
H          1.41567        5.28582       -3.69185
H         -3.37168        4.50250       -3.75000
H         -2.81213        2.97309       -2.95182
H         -3.78901        4.16683       -2.03151
C          0.22609        4.87405        0.99959
C         -0.32782        5.16430        2.22808
C          0.68823        5.69560        2.95367
C          1.81168        5.73572        2.12782
N          1.50597        5.26321        0.89370
C          3.11643        6.29343        2.60159
N          2.83687        7.61996        3.11383
C          3.88202        8.64291        3.34725
H         -1.34689        4.99487        2.52969
H         -0.35056        4.46617        0.18756
H          0.62157        6.00663        3.98927
H          3.52998        5.67218        3.42466
H          3.82774        6.32115        1.76948
C          4.60140        8.94790        2.02079
C          3.11011        9.87728        3.84891
C          4.94712        8.24322        4.40428
H          3.90026        9.22031        1.22775
H          5.36437        9.73521        2.17215
H          5.16185        8.03032        1.69917
H          2.59405        9.66156        4.80994
H          3.75636       10.76344        3.97922
H          2.30293       10.15751        3.11715
H          5.78682        7.67726        3.94563
H          4.54781        7.64663        5.25038
H          5.41459        9.16557        4.82515
