95
speciation1250.ct
Na         1.01551       -0.05356        0.48933
Mg        -1.17061       -1.74946       -1.17085
C          0.05292        2.95584        0.96577
C         -1.21911        1.93222       -0.76500
O         -0.04799        1.86398        0.05094
C         -1.15142        3.17921        1.89493
C         -1.26761        3.13435       -1.72663
H          0.93152        2.76701        1.61094
H          0.26744        3.90031        0.42448
H         -1.23222        1.02770       -1.40948
H         -2.13561        1.89974       -0.15156
H         -0.41884        3.10957       -2.44017
H         -2.21461        3.09963       -2.30837
H         -1.26682        4.10317       -1.18652
H         -1.36448        2.27085        2.48896
H         -0.91955        4.01194        2.59375
H         -2.06068        3.48680        1.33807
H         -3.64515       -1.56788       -0.24863
C         -3.97858       -1.21006       -2.32005
C         -3.15459       -0.98934       -1.05321
C         -5.41618       -0.69671       -2.14689
H         -3.49033       -0.68740       -3.16717
H         -4.01459       -2.29694       -2.53661
H         -5.90883       -1.21156       -1.29148
H         -5.39299        0.39429       -1.93843
C         -6.24602       -0.94296       -3.40472
H         -3.18853        0.06950       -0.76166
H         -5.77318       -0.45059       -4.28051
H         -6.33569       -2.03277       -3.60265
H         -7.26562       -0.52356       -3.26878
C         -2.05654       -4.35139       -2.40925
C         -1.65707       -5.62682       -2.08053
C         -0.74647       -5.49649       -1.03143
C         -0.65120       -4.14493       -0.77203
N         -1.45406       -3.46839       -1.59716
C          0.23503       -3.43134        0.26013
N         -0.24583       -2.04395        0.62252
C         -0.86404       -2.00915        1.99922
H         -1.98281       -6.54223       -2.56624
H         -2.73644       -4.08499       -3.20870
H         -0.23820       -6.31625       -0.54615
H          1.25951       -3.39636       -0.15616
H          0.28819       -4.12002        1.12154
C          0.14674       -2.38176        3.13114
C         -1.30060       -0.56714        2.28766
C         -2.08630       -2.94193        2.14516
H          0.96054       -1.64135        3.20825
H         -0.35327       -2.36955        4.12243
H          0.58821       -3.39415        3.04321
H         -2.08056       -0.23227        1.57784
H         -1.69061       -0.46988        3.32492
H         -0.42559        0.11147        2.20763
H         -2.88496       -2.68359        1.43269
H         -1.82475       -4.01022        2.01605
H         -2.51782       -2.83724        3.16926
Na         3.03584        4.55404        2.08421
Mg         3.86299       -0.62795       -0.96898
H          0.67718       -0.09205       -2.24964
C          0.60573       -1.29023       -4.05144
C          0.44652       -1.14061       -2.52660
C         -0.38801       -0.46676       -4.87034
H          1.63703       -0.95960       -4.31930
H          0.51323       -2.36353       -4.32690
H         -1.41983       -0.80785       -4.64819
H         -0.29037        0.60855       -4.60756
C         -0.11628       -0.62768       -6.37160
H          1.24482       -1.78306       -2.09607
H          0.90624       -0.27044       -6.62501
H         -0.20587       -1.69259       -6.67747
H         -0.84823       -0.03149       -6.95609
C          2.50562        4.25608       -0.98055
C          2.60546        3.38430       -2.04416
C          3.13751        2.21223       -1.54474
C          3.31762        2.41878       -0.19450
N          2.93423        3.66800        0.14710
C          3.92930        1.46391        0.77728
N          3.32761        0.11140        0.75214
C          3.97560       -0.81050        1.74445
H          2.33454        3.59388       -3.07417
H          2.13503        5.27302       -1.02707
H          3.36634        1.31885       -2.11280
H          3.85509        1.93288        1.77437
H          4.99373        1.39516        0.47800
C          3.77491       -0.32429        3.20298
C          3.35685       -2.20267        1.57774
C          5.49419       -0.98898        1.48454
H          2.70378       -0.18247        3.44283
H          4.20994       -1.05306        3.92141
H          4.30562        0.63165        3.40044
H          3.58188       -2.61950        0.57598
H          3.74336       -2.90570        2.35089
H          2.27191       -2.14377        1.65418
H          5.67153       -1.36916        0.45483
H          6.07285       -0.05624        1.62725
H          5.92275       -1.72615        2.19821
