83
speciation1855.ct
Na         1.07259        0.18461        0.10242
C         -0.09220       -1.42164       -2.34766
C          0.86296        0.69333       -2.97702
O          0.52784       -0.20415       -1.92782
C          0.64456       -2.17789       -3.46400
C         -0.36720        1.29036       -3.66836
H         -0.09134       -2.10402       -1.47361
H         -1.15386       -1.24888       -2.62097
H          1.45113        1.52189       -2.53697
H          1.55552        0.22950       -3.70926
H         -1.00235        1.82921       -2.93618
H         -0.03965        2.00592       -4.45272
H         -0.97327        0.50298       -4.16207
H          1.70415       -2.34622       -3.18606
H          0.15636       -3.16255       -3.62978
H          0.59344       -1.63016       -4.42948
C         -0.39985       -2.54737        2.74673
C          0.01113       -2.41371        4.05708
C          0.15531       -1.06104        4.28269
C         -0.16869       -0.43152        3.09035
N         -0.50674       -1.33547        2.16258
C         -0.10295        1.05904        2.88423
N         -0.27923        1.43776        1.46313
C         -0.05767        2.88909        1.19953
H          0.17582       -3.20720        4.77253
H         -0.62052       -3.48251        2.25055
H          0.46829       -0.58766        5.20559
H          0.88125        1.39734        3.24607
H         -0.88194        1.51580        3.52328
C          1.42527        3.28295        1.37944
C         -0.44820        3.17162       -0.25640
C         -0.93803        3.78547        2.10515
H          2.07519        2.66014        0.72780
H          1.57804        4.35192        1.11162
H          1.76235        3.18041        2.42802
H         -1.51179        2.90715       -0.43849
H         -0.30734        4.24801       -0.50220
H          0.18759        2.57944       -0.93955
H         -2.01388        3.54122        1.97507
H         -0.67228        3.68001        3.17906
H         -0.78958        4.85729        1.85489
Na        -1.12951       -0.92246        0.18171
Mg        -2.23573        1.18715        1.19964
C          3.75015       -0.96065       -0.84088
C          3.87231       -0.57082        1.46315
O          3.15977       -0.29844        0.26512
C          3.60523       -2.48369       -0.79019
C          3.26457        0.18424        2.61191
H          3.24839       -0.59017       -1.75618
H          4.81977       -0.66901       -0.95503
H          3.82539       -1.64484        1.74077
H          4.92637       -0.22672        1.37561
H          2.26513       -0.22759        2.75216
H          3.83637        0.01465        3.54720
H          3.22600        1.26825        2.39046
H          2.54177       -2.76295       -0.66003
H          3.98742       -2.92300       -1.73848
H          4.20892       -2.92682        0.03012
C         -5.10789        1.91735        0.82222
C         -6.36892        1.37676        0.66690
C         -6.21348        0.00657        0.67565
C         -4.86484       -0.22163        0.85476
N         -4.19222        0.93654        0.93615
C         -4.21234       -1.55006        1.01552
N         -3.45764       -1.60889        2.28183
C         -4.20027       -1.60010        3.56829
H         -7.29924        1.92160        0.57398
H         -4.87269        2.97197        0.87083
H         -6.99808       -0.73470        0.59691
H         -4.94050       -2.38123        0.93324
H         -3.49180       -1.67029        0.17787
C         -5.21522       -2.75472        3.63614
C         -3.17024       -1.79182        4.68775
C         -4.89144       -0.24740        3.85203
H         -4.69764       -3.72684        3.47888
H         -5.71137       -2.77368        4.62808
H         -6.00611       -2.64253        2.86806
H         -2.43038       -0.96677        4.65147
H         -3.65067       -1.75771        5.68757
H         -2.64783       -2.76479        4.58488
H         -4.15634        0.58582        3.77518
H         -5.74206       -0.05156        3.18507
H         -5.32169       -0.24003        4.87363
