95
speciation1221.ct
Na         1.06563        1.66442        0.23821
Mg         3.56983       -0.45373       -1.47831
C         -0.49148        2.08315        3.14622
C          1.60850        3.21064        3.28279
O          0.67079        2.51800        2.41166
C         -1.29931        3.22701        3.80957
C          2.03179        2.46726        4.58001
H         -1.18118        1.57527        2.44838
H         -0.25026        1.31122        3.91593
H          2.51358        3.42933        2.70913
H          1.18405        4.19570        3.55132
H          2.59254        1.53643        4.36457
H          2.69929        3.13254        5.17335
H          1.18860        2.22900        5.26388
H         -1.61500        3.96629        3.04704
H         -2.20723        2.81981        4.30941
H         -0.72074        3.74619        4.60428
H          2.68267       -2.54999       -2.79585
C          4.51530       -2.63704       -3.89341
C          3.44382       -1.82602       -3.14630
C          5.31538       -3.58435       -2.99044
H          3.99524       -3.23880       -4.67408
H          5.21714       -1.94992       -4.40556
H          5.88577       -2.98309       -2.25144
H          4.63641       -4.27675       -2.44573
C          6.29610       -4.42117       -3.82112
H          2.96005       -1.16287       -3.89354
H          5.74468       -5.08679       -4.52126
H          6.97042       -3.76421       -4.41132
H          6.91854       -5.05594       -3.15536
C         -2.01096        0.51438       -0.08388
C         -2.51315       -0.73695       -0.35622
C         -1.42843       -1.57374       -0.48258
C         -0.30783       -0.78828       -0.27854
N         -0.66090        0.49097       -0.04694
C          1.10931       -1.30940       -0.30262
N          2.14212       -0.28113        0.01681
C          2.86492       -0.52230        1.28561
H         -3.55811       -1.01180       -0.44127
H         -2.62070        1.37582        0.09197
H         -1.45991       -2.63684       -0.68216
H          1.28658       -1.70028       -1.31695
H          1.14841       -2.18645        0.37287
C          3.73428       -1.79696        1.19073
C          3.76672        0.69470        1.50122
C          1.90881       -0.65191        2.49495
H          4.39253       -1.75812        0.30226
H          4.36603       -1.89588        2.10425
H          3.11902       -2.71607        1.13324
H          3.14843        1.60668        1.57607
H          4.37740        0.58998        2.42027
H          4.44136        0.82185        0.64483
H          1.22588        0.20229        2.52262
H          1.28246       -1.56613        2.46201
H          2.48135       -0.68733        3.44621
Na        -1.45336        7.07028       -1.23531
Mg        -0.41295        6.08149       -4.23544
H          5.16594        1.64754       -1.33880
C          6.03252        0.88276       -3.14906
C          5.40679        0.65166       -1.76827
C          7.28477        1.77286       -3.05139
H          6.31428       -0.09777       -3.59058
H          5.28265        1.37327       -3.80297
H          7.01093        2.75466       -2.60567
H          8.04746        1.29183       -2.39995
C          7.90568        2.02614       -4.42444
H          6.15048        0.15181       -1.11019
H          8.23453        1.07009       -4.88583
H          7.17485        2.52439       -5.09576
H          8.79285        2.68837       -4.31782
C          2.17948        2.18698       -2.82471
C          2.33051        2.96010       -3.97011
C          1.86764        4.19926       -3.65987
C          1.43012        4.12850       -2.34447
N          1.63759        2.90080       -1.79146
C          0.72942        5.25850       -1.70538
N         -0.56976        5.49450       -2.37230
C         -1.55934        4.38722       -2.31046
H          2.71110        2.65803       -4.94212
H          2.43798        1.14112       -2.77515
H          1.78431        5.05538       -4.33232
H          0.59784        5.09837       -0.61707
H          1.35687        6.18935       -1.80154
C         -1.70251        3.90318       -0.86274
C         -2.91451        4.92570       -2.78950
C         -1.23592        3.20994       -3.27762
H         -1.88577        4.76755       -0.18895
H         -2.56266        3.23349       -0.79472
H         -0.78951        3.36810       -0.52180
H         -2.85708        5.24506       -3.85225
H         -3.68597        4.12551       -2.71836
H         -3.24203        5.77680       -2.17260
H         -1.01605        3.58199       -4.30451
H         -0.41002        2.56539       -2.95553
H         -2.08306        2.49717       -3.34505
