110
speciation2136.ct
Na         5.79953        2.80974        3.18821
Mg         2.26583        5.18565       -1.30595
C          8.24050        3.28821        5.02120
C          9.14166        2.02997        3.20177
O          7.97255        2.43699        3.91033
C          9.12484        4.51295        4.72813
C         10.08762        1.13814        4.03892
H          7.25819        3.67581        5.35904
H          8.64041        2.70865        5.88124
H          8.82985        1.42689        2.32484
H          9.69570        2.90153        2.79904
H          9.59909        0.18126        4.32128
H         10.99587        0.89958        3.44418
H         10.43957        1.64327        4.96330
H          9.09355        5.20637        5.59550
H          8.76615        5.05353        3.82777
H         10.18668        4.21696        4.58714
H          4.53599        5.95251       -0.27056
C          4.11732        7.84198       -1.16333
C          4.06078        6.33710       -1.19863
C          5.53596        8.29480       -1.14689
H          3.62819        8.24482       -2.08785
H          3.57432        8.24008       -0.28190
H          6.08040        7.92680       -0.22626
H          6.11586        7.90681       -2.02999
C          5.67030        9.81148       -1.17606
H          4.68663        6.00896       -2.05654
H          5.18759       10.20432       -2.10215
H          5.15778       10.25170       -0.28770
H          6.73523       10.13236       -1.16951
C          2.59559        3.39465        3.34418
C          1.41315        3.40709        2.69747
C          1.70703        3.23287        1.35585
C          3.07829        3.13725        1.21625
N          3.57968        3.19052        2.45054
C          3.97416        2.82318        0.04995
N          3.43737        3.21210       -1.26349
C          2.84612        2.37520       -2.34066
H          0.42127        3.53490        3.14085
H          2.74339        3.47282        4.40647
H          0.99323        3.19396        0.56090
H          4.87783        3.48979        0.20467
H          4.37372        1.78074        0.07346
C          1.87107        1.41487       -1.50842
C          3.51559        1.25236       -3.25187
C          3.14171        3.57456       -3.37463
H          2.29004        0.36754       -1.41424
H          2.18241        1.37534       -0.46314
H          0.96567        1.75309       -1.00930
H          3.80359        1.52752       -4.30547
H          4.31923        0.67907       -2.77214
H          2.74003        0.51479       -3.59463
H          2.77750        3.56620       -4.40117
H          3.19055        4.61887       -2.99658
H          4.26565        3.58231       -3.56879
Na        -3.27353        2.93612        0.08373
Mg         5.08274        2.64152       -2.20456
C          0.96947        6.81828       -3.63634
C         -0.10532        4.81487       -2.92649
O          1.12387        5.54760       -2.97825
C         -0.20616        7.72676       -3.20229
C         -0.63597        4.34682       -4.27965
H          1.90104        7.39154       -3.49013
H          0.89770        6.66760       -4.73750
H          0.06138        3.93441       -2.28656
H         -0.88777        5.42023       -2.44227
H          0.10875        3.70454       -4.78645
H         -1.56784        3.76425       -4.11020
H         -0.90439        5.20325       -4.93334
H         -0.17399        7.94006       -2.11625
H         -0.15685        8.69314       -3.75465
H         -1.19873        7.29843       -3.46948
H          6.52710        0.96145       -3.95500
C          7.59545        2.69075       -3.18710
C          6.37183        2.04879       -3.75421
C          7.88294        2.01627       -1.85785
H          8.43723        2.59297       -3.90202
H          7.36201        3.76758       -3.02742
H          7.01758        2.13690       -1.17064
H          8.06285        0.93084       -2.01990
C          9.11603        2.62259       -1.20560
H          6.08587        2.54368       -4.70476
H          9.99127        2.49501       -1.87708
H          8.94756        3.70300       -1.01019
H          9.30800        2.10019       -0.24720
C          1.71430        6.46805        1.33402
C          0.97542        6.67413        2.46302
C         -0.22829        6.06557        2.22927
C         -0.17719        5.54384        0.95902
N          1.07219        5.74127        0.40288
C         -1.33460        4.78825        0.34588
N         -2.46195        4.53114        1.26883
C         -3.59374        5.49798        1.40714
H          1.25175        7.18605        3.36975
H          2.75332        6.79287        1.25150
H         -1.00360        5.99998        2.95303
H         -1.68408        5.26568       -0.56320
H         -0.96658        3.79206        0.04438
C         -4.14734        5.93549        0.03411
C         -4.68356        4.76810        2.22366
C         -3.25743        6.77060        2.21869
H         -4.46050        5.06060       -0.57011
H         -5.01631        6.61611        0.15678
H         -3.39272        6.51656       -0.53584
H         -4.25328        4.43826        3.19774
H         -5.54435        5.43534        2.45157
H         -5.05852        3.86405        1.70228
H         -3.00269        6.52392        3.27219
H         -2.45943        7.37265        1.74175
H         -4.15421        7.42511        2.29132
