95
speciation1444.ct
Na         1.03596       -0.05810       -0.07301
Mg         4.31714       -1.61318       -0.56412
C         -1.44570       -1.28375        1.01621
C         -2.56385       -0.52235       -0.98632
O         -1.28404       -0.05810       -0.07301
C         -1.74885       -2.78298        1.07917
C         -3.98196       -0.02959       -0.79332
H         -0.54810       -1.24029        1.66939
H         -2.33616       -0.94744        1.62202
H         -2.36134       -0.16866       -2.02139
H         -2.62500       -1.62904       -1.03879
H         -4.05142        1.05684       -0.99009
H         -4.58156       -0.53848       -1.59447
H         -4.40705       -0.33339        0.17765
H         -0.87667       -3.40562        0.82854
H         -1.92754       -2.98448        2.17940
H         -2.69952       -3.09406        0.60967
H          6.21922       -1.99236        1.80140
C          6.57187       -3.89522        0.99392
C          5.61964       -2.70996        1.21145
C          7.80125       -3.59374        0.13197
H          6.92661       -4.24113        1.99141
H          6.02822       -4.74760        0.54397
H          8.38352       -4.53871        0.06973
H          7.49832       -3.30023       -0.89407
C          8.71334       -2.52363        0.73434
H          4.87843       -3.11504        1.92604
H          8.22991       -1.52565        0.69785
H          8.96623       -2.77332        1.78770
H          9.65672       -2.47582        0.15071
C          6.47654       -0.87596       -2.69449
C          6.63939        0.32850       -3.36888
C          5.69529        1.19313       -2.87751
C          4.95522        0.48033       -1.91967
N          5.44653       -0.78287       -1.82803
C          3.82457        0.96868       -1.10386
N          3.40596       -0.05810       -0.07301
C          3.75933        0.41234        1.30521
H          7.39571        0.56137       -4.10068
H          7.05914       -1.76584       -2.85115
H          5.51169        2.20425       -3.16620
H          2.97996        1.30320       -1.71935
H          4.17825        1.91228       -0.65588
C          3.10022        1.76489        1.69396
C          3.19354       -0.61481        2.29754
C          5.28970        0.60259        1.45578
H          2.02736        1.72875        1.49126
H          3.27695        1.98780        2.77074
H          3.48167        2.64830        1.15062
H          3.49994       -1.62608        2.05950
H          3.49538       -0.37596        3.34115
H          2.08424       -0.63167        2.24825
H          5.85010       -0.18390        0.94364
H          5.63729        1.52927        0.95466
H          5.58760        0.68639        2.52281
Na         1.14070       -2.47073       -0.11793
Mg        -0.76978       -0.24746       -0.96044
H         -0.78268        1.95679        0.13898
C         -0.86374        1.23759        2.15634
C         -1.26271        0.99307        0.58219
C         -1.55269        2.40901        2.91241
H         -1.20866        0.40443        2.78845
H          0.21665        1.27484        2.31952
H         -2.64337        2.36919        2.71274
H         -1.43073        2.25559        4.01261
C         -1.00593        3.80657        2.64481
H         -2.35280        1.47564        0.66742
H         -0.03509        3.94285        3.17191
H         -0.88100        4.00145        1.56467
H         -1.71656        4.55054        3.07275
C         -1.21589       -2.10587       -3.23216
C         -0.64536       -2.74600       -4.30445
C          0.67852       -2.49471       -4.21545
C          0.88779       -1.78177       -3.06626
N         -0.28893       -1.45758       -2.46526
C          2.21212       -1.41337       -2.56551
N          2.70701       -2.37359       -1.54787
C          3.01633       -3.74309       -1.96220
H         -1.14819       -3.34786       -5.04901
H         -2.28131       -2.11952       -3.08051
H          1.45551       -2.87631       -4.88999
H          2.01695       -0.44662       -2.11841
H          2.94365       -1.23535       -3.39467
C          4.14944       -3.74201       -3.01551
C          3.50711       -4.40565       -0.69129
C          1.78668       -4.61395       -2.32670
H          5.05046       -3.23124       -2.59451
H          4.45660       -4.77389       -3.27803
H          3.87299       -3.20804       -3.94549
H          2.72434       -4.35901        0.10229
H          3.82273       -5.45625       -0.84143
H          4.33515       -3.82098       -0.35576
H          1.10554       -4.59853       -1.45414
H          1.07980       -4.48490       -3.14480
H          2.16369       -5.62823       -2.55276
