81
speciation407.ct
Na         3.36638       -4.04728       -1.80810
Mg         4.78440        2.31026       -1.29364
C          1.98275       -5.84644       -4.03142
C          0.83866       -6.00857       -1.97692
O          2.08385       -5.80285       -2.61772
C          1.14374       -4.71930       -4.64741
C          1.01140       -5.92817       -0.46703
H          3.01428       -5.75575       -4.43206
H          1.61328       -6.84090       -4.36664
H          0.09274       -5.23522       -2.25325
H          0.45481       -7.02503       -2.21722
H          1.33907       -4.90847       -0.17426
H          0.03882       -6.14166        0.02733
H          1.76060       -6.66984       -0.12068
H          1.52020       -3.72900       -4.31765
H          1.21149       -4.77962       -5.75433
H          0.07017       -4.81720       -4.38741
H          7.67890        2.27134       -2.24374
C          8.49975        0.84950       -0.86318
C          7.40385        1.97433       -1.20731
C          8.45812       -0.39766       -1.79581
H          9.53862        1.27005       -0.94474
H          8.38867        0.52526        0.19301
H          7.43472       -0.77889       -1.77582
H          8.71296       -0.10198       -2.83659
C          9.35512       -1.60911       -1.42563
H          7.70221        2.83000       -0.55876
H         10.43999       -1.44313       -1.60496
H          9.21136       -1.93926       -0.37503
H          9.05751       -2.47149       -2.06978
C          3.82413        1.11313       -3.99633
C          3.52311       -0.13789       -4.53685
C          3.76447       -1.06380       -3.57271
C          4.19704       -0.35037       -2.45586
N          4.20810        0.96581       -2.70670
C          4.58204       -0.80028       -1.13457
N          4.67656       -2.25388       -0.98102
C          4.82421       -2.64676        0.44486
H          3.16411       -0.32459       -5.54327
H          3.73652        2.04908       -4.50694
H          3.64543       -2.12992       -3.62827
H          3.86207       -0.33091       -0.46583
H          5.55712       -0.33693       -0.92620
C          3.50196       -2.37542        1.23137
C          5.07844       -4.16525        0.53359
C          6.07004       -1.96250        1.06313
H          2.74723       -3.16074        1.01001
H          3.67961       -2.35117        2.32468
H          2.97783       -1.44153        0.98232
H          6.00877       -4.45299        0.00216
H          5.16299       -4.47563        1.59904
H          4.23808       -4.74455        0.09866
H          6.95405       -2.20859        0.43237
H          5.98971       -0.86219        1.12799
H          6.27202       -2.33982        2.08624
Mg         2.63232        0.60779        0.80872
C          3.39861        4.39875       -3.20656
C          2.13589        4.97976       -3.16818
C          1.55658        4.59603       -1.98337
C          2.48085        3.78831       -1.35607
N          3.61024        3.67809       -2.08501
C          2.24341        3.09975       -0.04581
N          3.43704        2.33533        0.42334
C          3.85401        2.75458        1.79859
H          1.65807        5.57584       -3.93792
H          4.07085        4.44721       -4.04649
H          0.55993        4.83957       -1.63528
H          1.37396        2.41473       -0.12017
H          1.93651        3.90276        0.65489
C          2.71065        2.63004        2.86794
C          4.94976        1.78247        2.22487
C          4.36683        4.21380        1.81782
H          2.30318        1.59889        2.92367
H          3.09942        2.89208        3.87957
H          1.85477        3.31804        2.70450
H          4.52475        0.75317        2.25712
H          5.32905        2.02695        3.24005
H          5.78347        1.79869        1.49698
H          5.08228        4.39202        0.99269
H          3.53287        4.94368        1.71713
H          4.85350        4.44601        2.79040
