95
speciation1401.ct
Na         6.22271       -0.53086        1.83629
Mg         2.19335       -0.83138       -2.36878
C          7.78276        1.52343        3.75938
C          5.90959        0.66432        4.86229
O          6.55153        0.82418        3.59773
C          8.83719        0.71571        4.52940
C          4.48603        0.18055        4.69107
H          8.17605        1.76174        2.75269
H          7.63249        2.51674        4.25379
H          6.44476       -0.07386        5.49137
H          5.84001        1.64346        5.40269
H          4.49157       -0.80092        4.17631
H          4.02219        0.05895        5.69541
H          3.89314        0.91617        4.11003
H          8.95018       -0.28557        4.06737
H          9.81270        1.24535        4.50852
H          8.55851        0.59708        5.59878
H          3.32856        1.72420       -2.70220
C          4.07972        2.13516       -0.72122
C          3.12387        1.32041       -1.69170
C          5.62186        1.91534       -0.65655
H          3.92751        3.21603       -0.92442
H          3.72773        1.95407        0.32055
H          6.02696        2.62783        0.10171
H          5.82180        0.93240       -0.19065
C          6.50852        2.19878       -1.90109
H          2.11719        1.69947       -1.40071
H          6.73264        3.26016       -1.91026
H          6.07313        2.16266       -2.92469
H          7.51197        1.70164       -1.77929
C          1.75282       -3.71068       -1.29399
C          2.22549       -4.59793       -0.35315
C          3.11689       -3.90299        0.42025
C          3.14849       -2.62945       -0.09996
N          2.31855       -2.48616       -1.14894
C          4.08612       -1.59150        0.34828
N          5.47404       -2.04596        0.19179
C          5.91644       -2.34790       -1.22974
H          1.98108       -5.64987       -0.27299
H          1.08159       -4.01289       -2.06297
H          3.72989       -4.30324        1.21388
H          3.89365       -1.40139        1.42178
H          3.91984       -0.63862       -0.17802
C          5.71682       -1.14824       -2.13595
C          7.40290       -2.75671       -1.18976
C          5.21054       -3.56865       -1.93012
H          6.31844       -0.34413       -1.74095
H          6.08064       -1.33768       -3.13718
H          4.64255       -0.87988       -2.24009
H          7.52031       -3.66793       -0.56450
H          7.77132       -3.01050       -2.21774
H          8.03572       -1.93410       -0.77563
H          5.24130       -4.49676       -1.31598
H          4.18350       -3.36118       -2.25365
H          5.69023       -3.79569       -2.90478
Na         3.56639        1.88693       -7.00868
Mg         4.49792       -0.94033       -6.17411
H          6.84513       -1.93451       -4.90605
C          7.19116       -2.23866       -6.95032
C          6.21537       -2.10722       -5.79192
C          8.14610       -1.03963       -7.04273
H          7.80591       -3.14798       -6.77447
H          6.61725       -2.36794       -7.88879
H          7.57783       -0.09518       -7.17869
H          8.74169       -0.96182       -6.10346
C          9.11292       -1.22394       -8.20943
H          5.67423       -3.06197       -5.64629
H          9.70615       -2.15505       -8.07638
H          8.54671       -1.28770       -9.16230
H          9.81312       -0.36428       -8.26368
C          0.06356       -2.30539       -4.04455
C         -0.60667       -2.43147       -5.23396
C         -0.07102       -1.43457       -6.05587
C          0.92176       -0.81709       -5.33423
N          0.98765       -1.32599       -4.06670
C          1.75077        0.30387       -5.87500
N          2.81358       -0.10620       -6.82488
C          2.57377       -0.49613       -8.24803
H         -1.36974       -3.12570       -5.54675
H         -0.18129       -2.95639       -3.23558
H         -0.44091       -1.20054       -7.05705
H          1.09245        1.09575       -6.30881
H          2.26095        0.76801       -5.00891
C          1.69856        0.54626       -8.96164
C          3.97070       -0.56350       -8.89381
C          1.99250       -1.92191       -8.46669
H          2.12574        1.56457       -8.84900
H          1.61321        0.31806      -10.04296
H          0.67447        0.54683       -8.53468
H          4.56231       -1.37455       -8.40957
H          3.90180       -0.81320       -9.97643
H          4.53140        0.38353       -8.78191
H          2.55794       -2.69083       -7.90022
H          0.93102       -2.04364       -8.26737
H          2.05025       -2.18250       -9.54859
