95
speciation1671.ct
Na         1.13197        1.63938       -0.36015
Mg         3.50616       -0.28841       -1.56033
C          0.95220       -0.75049       -3.52269
C          3.01822       -0.09228       -4.53089
O          2.29902       -0.24466       -3.30330
C          0.83163       -2.16403       -4.16091
C          2.35001        0.83771       -5.55844
H          0.41086       -0.76511       -2.56059
H          0.29417       -0.03153       -4.05726
H          4.02971        0.29829       -4.30994
H          3.20648       -1.05681       -5.02694
H          2.32158        1.88999       -5.20857
H          2.91329        0.78176       -6.51253
H          1.32597        0.50367       -5.81136
H          1.83244       -2.42002       -4.37047
H          0.50385       -2.93724       -3.43251
H          0.75224       -2.39970       -5.24363
H          5.02909        1.85578       -2.88016
C          5.58997        2.61377       -0.95705
C          4.55216        1.91348       -1.88170
C          6.03025        4.00816       -1.42291
H          5.17888        2.81289        0.04580
H          6.47296        1.95473       -0.84828
H          6.51593        3.97896       -2.42070
H          5.15069        4.68976       -1.46137
C          7.02521        4.57852       -0.41851
H          3.69375        2.62472       -1.97992
H          6.61651        4.52973        0.61609
H          7.96321        3.98462       -0.45822
H          7.22559        5.63960       -0.66812
C         -1.90532        0.88708       -0.13465
C         -2.53331       -0.33218        0.04689
C         -1.53792       -1.28122        0.16204
C         -0.35107       -0.59070        0.06312
N         -0.58234        0.71335       -0.13095
C          1.02627       -1.18809        0.13641
N          2.10069       -0.15322        0.10081
C          2.67808        0.17116        1.43792
H         -3.59563       -0.51921        0.07982
H         -2.37381        1.84376       -0.27382
H         -1.65797       -2.35040        0.30340
H          1.12605       -1.86123       -0.73244
H          1.06139       -1.80831        1.05462
C          3.50109       -1.06500        1.93225
C          3.55984        1.36089        1.17050
C          1.62228        0.66204        2.46677
H          3.98163       -1.41745        1.02583
H          4.30429       -1.09444        2.71909
H          2.81209       -1.84972        2.27234
H          2.96127        2.25759        0.85371
H          4.20591        1.66173        2.01663
H          4.16694        1.02660        0.33370
H          1.05268        1.52179        2.04485
H          0.87986       -0.11320        2.74053
H          2.11680        1.03283        3.39293
Na         7.66340       -3.57524       -3.68412
Mg         6.29519       -1.44218       -2.76791
H          7.55115       -1.50539       -5.07206
C          9.06018       -0.83890       -3.66034
C          7.63692       -0.81232       -4.21607
C          9.24512        0.05640       -2.42560
H          9.31112       -1.87910       -3.37776
H          9.76383       -0.52004       -4.45951
H          8.58851       -0.28528       -1.59574
H         10.30454       -0.02603       -2.09217
C          8.95068        1.52146       -2.73436
H          7.40516        0.21013       -4.60168
H          9.56864        1.85022       -3.59724
H          7.87482        1.65099       -2.96777
H          9.18103        2.16043       -1.85804
C          9.20599       -4.08814       -1.14300
C          9.34759       -4.03024        0.22423
C          8.19487       -3.43339        0.69713
C          7.39919       -3.08653       -0.40305
N          8.02574       -3.53561       -1.53446
C          6.04814       -2.28955       -0.23584
N          5.05613       -2.11864       -1.39114
C          4.33752       -3.41891       -1.68032
H         10.19663       -4.38712        0.81213
H          9.94647       -4.51368       -1.81881
H          7.97283       -3.26449        1.74256
H          6.34727       -1.29171        0.13578
H          5.56641       -2.68225        0.67608
C          3.51813       -3.91159       -0.48219
C          3.34463       -3.21612       -2.79031
C          5.25803       -4.57982       -2.08345
H          2.76486       -3.17170       -0.18635
H          2.99778       -4.85912       -0.73936
H          4.16494       -4.14513        0.36883
H          3.82507       -2.88478       -3.73635
H          2.74169       -4.13505       -3.00922
H          2.63391       -2.46506       -2.40964
H          5.83576       -4.36903       -2.99749
H          5.90090       -4.84345       -1.23460
H          4.67100       -5.50279       -2.27374
