95
speciation1209.ct
Na         1.07219       -0.06876        0.00779
Mg         4.26622        1.23668        1.39448
C         -1.68701       -0.44701        1.30260
C         -1.89345       -0.81648       -1.00851
O         -1.24781       -0.06876        0.00779
C         -1.33530       -1.88894        1.69569
C         -1.35786       -0.41800       -2.37502
H         -1.17645        0.22645        2.02273
H         -2.77600       -0.25719        1.42414
H         -1.72232       -1.90738       -0.91004
H         -2.98436       -0.59429       -0.99760
H         -0.28257       -0.68411       -2.45488
H         -1.91830       -0.96953       -3.16192
H         -1.48523        0.67113       -2.54145
H         -0.24762       -2.07587        1.56064
H         -1.59709       -2.05528        2.76209
H         -1.91490       -2.63070        1.10947
H          5.79017        3.05838       -0.00980
C          6.29234        3.85606        1.86569
C          5.25518        3.19860        0.95070
C          7.49714        2.93449        2.08241
H          6.64424        4.80049        1.38745
H          5.82271        4.11281        2.83829
H          7.14824        1.99759        2.56329
H          7.96552        2.68288        1.10468
C          8.55005        3.59073        2.97129
H          4.43979        3.93139        0.76882
H          8.96231        4.50195        2.48497
H          8.11260        3.86732        3.95222
H          9.38569        2.87651        3.14277
C          6.34693       -3.36499        1.32854
C          6.75223       -2.18877        1.92269
C          5.71604       -1.29711        1.77819
C          4.72276       -1.96113        1.07849
N          5.10997       -3.22831        0.81249
C          3.39155       -1.38821        0.68523
N          3.44219       -0.06876        0.00779
C          4.30102       -0.04461       -1.25655
H          7.69103       -2.00117        2.42471
H          6.91229       -4.28475        1.30885
H          5.70135       -0.28050        2.12775
H          2.80864       -1.25545        1.60494
H          2.82495       -2.12033        0.07514
C          3.91150       -1.15395       -2.25540
C          4.16377        1.29820       -1.98363
C          5.84456       -0.18196       -0.98381
H          2.84957       -1.04244       -2.55090
H          4.54400       -1.09248       -3.16762
H          4.07124       -2.16633       -1.82677
H          4.46255        2.13654       -1.35147
H          4.82323        1.32773       -2.88673
H          3.11411        1.48370       -2.32493
H          6.20177        0.55657       -0.23425
H          6.16627       -1.19970       -0.70548
H          6.43524       -0.02318       -1.91110
Na         4.63141       -7.63181       -0.38262
Mg         4.04577       -4.75772        0.11357
H          4.54173        0.26219        3.93786
C          2.59026        1.06830        4.31657
C          3.95043        1.13227        3.59018
C          1.72601       -0.15714        3.97458
H          2.77194        1.06430        5.41543
H          2.01344        1.98422        4.07122
H          0.76667       -0.07496        4.53093
H          1.47768       -0.13926        2.89567
C          2.36416       -1.49672        4.36509
H          4.48920        2.02874        3.96404
H          3.31887       -1.67183        3.83023
H          2.55614       -1.53370        5.45849
H          1.67065       -2.32467        4.10299
C          2.44449       -6.92713        3.88593
C          2.38882       -5.57010        3.61733
C          2.25157       -5.43016        2.26060
C          2.21609       -6.63580        1.71993
N          2.35218       -7.65001        2.68886
C          1.96853       -6.90475        0.29641
N          2.98158       -6.28713       -0.58536
C          2.58864       -6.38125       -2.04031
H          2.42554       -4.78323        4.35413
H          2.53670       -7.37471        4.86353
H          2.12585       -4.49467        1.71230
H          0.96512       -6.47716        0.11667
H          1.93535       -8.00705        0.13814
C          1.22137       -5.70545       -2.34331
C          3.64034       -5.67296       -2.91010
C          2.52208       -7.85998       -2.51692
H          1.22942       -4.63803       -2.03936
H          0.99656       -5.75642       -3.43193
H          0.36373       -6.21732       -1.86275
H          4.63764       -6.14417       -2.79984
H          3.35132       -5.74700       -3.98760
H          3.70796       -4.59667       -2.65474
H          3.51584       -8.35177       -2.41746
H          1.77462       -8.46139       -1.96955
H          2.23336       -7.91318       -3.59088
