95
speciation1393.ct
Na         7.15220        0.81958       -0.35608
Mg         2.27794        4.60487       -1.11803
C          7.58797       -2.20652       -1.64087
C          8.27846       -1.98595        0.60359
O          8.01183       -1.31945       -0.61683
C          6.25725       -2.92229       -1.35988
C          8.79915       -0.99420        1.63429
H          7.47301       -1.61652       -2.57353
H          8.38631       -2.95321       -1.85016
H          7.35958       -2.43375        1.03479
H          9.06750       -2.75766        0.45797
H          8.03178       -0.21783        1.83975
H          9.01986       -1.53018        2.58293
H          9.72856       -0.50772        1.27231
H          5.44282       -2.18670       -1.19806
H          5.99745       -3.56196       -2.22985
H          6.32608       -3.59903       -0.48331
H          2.31447        7.09944       -0.44283
C          0.19041        6.76548       -0.66791
C          1.63027        6.53932       -1.11511
C         -0.01729        6.33303        0.78792
H         -0.03595        7.85117       -0.75509
H         -0.49180        6.20054       -1.33809
H          0.20165        5.25187        0.89633
H          0.67191        6.90092        1.45136
C         -1.45235        6.59887        1.23648
H          1.77108        6.94373       -2.13301
H         -1.68410        7.68334        1.16344
H         -2.16614        6.03053        0.60326
H         -1.58090        6.28081        2.29266
C          6.99174        4.14033       -0.02657
C          6.15394        5.22483        0.12252
C          4.86705        4.73013        0.15837
C          4.96824        3.35788        0.02791
N          6.27405        3.00471       -0.08970
C          3.78708        2.40076        0.01881
N          2.90973        2.71783       -1.12088
C          1.66431        1.97340       -1.34449
H          6.45144        6.26221        0.19706
H          8.07108        4.17723       -0.09192
H          3.96113        5.30823        0.26944
H          4.15639        1.35786       -0.06941
H          3.24491        2.52319        0.97821
C          0.76182        2.03646       -0.10129
C          0.94342        2.67796       -2.51353
C          1.94895        0.52247       -1.76607
H          0.59707        3.09556        0.18519
H         -0.22492        1.56875       -0.30151
H          1.22506        1.50858        0.75664
H          1.57855        2.67090       -3.42716
H         -0.02012        2.18038       -2.75323
H          0.72504        3.73905       -2.26449
H          2.60962        0.50752       -2.66078
H          2.43721       -0.05040       -0.95357
H          1.00003        0.01009       -2.03901
Na         4.21973        2.32624       -3.05672
Mg         1.54568        3.48174       -6.01780
H          0.00393        5.66002       -6.13201
C          1.64262        6.34440       -4.87714
C          0.69722        5.25090       -5.36955
C          2.43433        7.00946       -6.00647
H          1.02599        7.13421       -4.39558
H          2.33326        5.91617       -4.11823
H          1.72988        7.43579       -6.75101
H          3.03085        7.84108       -5.57313
C          3.39092        6.04839       -6.69544
H          0.10629        4.90024       -4.50456
H          4.12441        5.68023       -5.95559
H          2.84258        5.19298       -7.14130
H          3.93940        6.58279       -7.49813
C          1.75186        0.66996       -6.91673
C          2.64429       -0.35287       -7.16445
C          3.90017        0.15492       -6.91423
C          3.71952        1.46790       -6.52593
N          2.40419        1.78329       -6.51982
C          4.81068        2.42914       -6.16951
N          5.52973        1.93466       -4.99256
C          6.69654        2.73493       -4.54237
H          2.40494       -1.35748       -7.48764
H          0.67832        0.59739       -7.01064
H          4.83919       -0.37725       -7.00872
H          4.35848        3.41162       -5.95541
H          5.47997        2.49798       -7.05019
C          6.28564        4.17354       -4.14677
C          7.26014        2.04698       -3.28702
C          7.80622        2.78905       -5.60888
H          5.48599        4.17250       -3.37594
H          7.15243        4.72600       -3.72485
H          5.93544        4.74735       -5.02362
H          7.57744        1.00851       -3.51526
H          8.13385        2.60476       -2.88357
H          6.48611        1.99941       -2.49473
H          8.13872        1.76488       -5.87523
H          7.46527        3.31176       -6.52527
H          8.68093        3.35594       -5.22014
