110
speciation2089.ct
Na         0.65626        2.04251       -0.00481
Mg         3.76227       -0.12885       -1.65575
C         -0.59344        2.59186        3.15207
C          1.53967        3.59545        3.07146
O          0.59989        2.75990        2.34655
C         -1.31840        3.90573        3.48494
C          2.02419        3.07153        4.46830
H         -1.30183        1.95244        2.55715
H         -0.41815        1.99849        4.05636
H          2.44567        3.78944        2.47356
H          1.12771        4.61213        3.19029
H          2.75526        2.23627        4.38889
H          2.53610        3.89933        5.00676
H          1.22315        2.75819        5.17085
H         -1.51416        4.47955        2.55745
H         -2.27255        3.70372        4.01087
H         -0.72996        4.53325        4.18821
H          3.10566        0.04938       -4.31810
C          1.86466        1.56719       -3.45993
C          2.51692        0.20287       -3.39349
C          2.93166        2.69208       -3.37740
H          1.28465        1.59806       -4.41333
H          1.13681        1.64886       -2.61995
H          3.68769        2.49751       -4.15467
H          2.67313        3.74744       -3.56342
C          3.40844        2.77687       -1.95352
H          1.67400       -0.52029       -3.40327
H          2.60415        3.09504       -1.26493
H          3.59916        1.77386       -1.63802
H          4.28608        3.45005       -1.87659
C         -2.07352        0.50864       -0.03425
C         -2.50554       -0.79323       -0.11712
C         -1.37016       -1.56874       -0.23445
C         -0.29108       -0.69443       -0.21270
N         -0.73750        0.56761       -0.08311
C          1.16944       -1.09117       -0.32392
N          2.13566        0.02765       -0.08385
C          2.81979       -0.16420        1.24455
H         -3.53595       -1.12609       -0.09434
H         -2.69638        1.35916        0.05508
H         -1.35429       -2.64992       -0.31478
H          1.33066       -1.53590       -1.31710
H          1.31103       -1.94712        0.36788
C          3.80357       -1.35681        1.21041
C          3.57142        1.11969        1.51777
C          1.86989       -0.40552        2.46751
H          4.49793       -1.26657        0.36808
H          4.40829       -1.40396        2.14680
H          3.28984       -2.33574        1.13039
H          2.84291        1.88997        1.70464
H          4.26056        1.03574        2.39324
H          4.10426        1.47233        0.62344
H          1.10249        0.37763        2.54783
H          1.35666       -1.38774        2.44947
H          2.47205       -0.40234        3.41545
Na        -3.96209        6.57498       -2.07282
Mg        -3.95751        3.28119       -2.73937
C          6.22004        1.42324       -2.76534
C          6.51286        0.93248       -0.46298
O          5.58425        1.03558       -1.54145
C          7.20548        0.41928       -3.35649
C          7.17312        2.27791       -0.09011
H          5.43014        1.55174       -3.51004
H          6.68817        2.43407       -2.70322
H          5.96774        0.60742        0.43211
H          7.27056        0.14273       -0.63041
H          6.41830        3.08969       -0.00186
H          7.69880        2.18487        0.88460
H          7.93597        2.57420       -0.84109
H          6.79768       -0.59378       -3.31983
H          7.38360        0.67324       -4.42566
H          8.17442        0.43338       -2.82199
H          5.11841       -1.78043       -3.10021
C          3.98340       -3.36022       -2.27703
C          4.66664       -2.01193       -2.12045
C          2.91506       -3.31124       -3.36861
H          4.75198       -4.12552       -2.52527
H          3.52028       -3.61233       -1.30054
H          2.20242       -2.54114       -3.06647
H          3.34269       -3.03734       -4.36150
C          2.13102       -4.61295       -3.48650
H          5.48049       -2.11907       -1.37619
H          2.67817       -5.35754       -4.10109
H          1.92117       -5.03678       -2.48167
H          1.15791       -4.39471       -3.97650
C          0.11558        4.03678       -3.33529
C         -0.56657        5.10278       -3.84499
C         -1.44005        5.44553       -2.91937
C         -1.27401        4.54534       -1.86274
N         -0.21295        3.71033       -2.03896
C         -2.22322        4.51290       -0.75168
N         -3.60057        4.58739       -1.31326
C         -4.70426        4.45516       -0.35083
H         -0.41712        5.56098       -4.83652
H          0.80060        3.63223       -4.02049
H         -2.14840        6.24227       -3.03848
H         -2.04915        3.57401       -0.20511
H         -2.01341        5.39879       -0.12748
C         -4.52575        5.45001        0.80859
C         -6.02410        4.76301       -1.08915
C         -4.79416        3.02302        0.18200
H         -4.45951        6.48716        0.41383
H         -5.36603        5.37380        1.52414
H         -3.59745        5.23018        1.37667
H         -6.20248        4.04187       -1.91798
H         -6.88059        4.69207       -0.38628
H         -6.02705        5.78631       -1.51606
H         -4.85211        2.30243       -0.66611
H         -3.92666        2.81794        0.82339
H         -5.69422        2.89513        0.81472
