96
speciation1503.ct
Na         3.72140        0.75186        1.86596
Mg         1.79234       -1.63756       -3.86670
C          4.34873       -3.08565       -3.17279
C          2.57088       -4.54732       -3.11604
O          2.92675       -3.18157       -3.19483
C          5.05050       -3.56173       -4.44937
C          1.08434       -4.67593       -2.96309
H          4.61211       -2.05502       -2.97938
H          4.79658       -3.59710       -2.28399
H          2.86433       -5.10200       -4.03129
H          3.01823       -5.01820       -2.20788
H          0.61436       -4.27703       -3.88068
H          0.81071       -5.74368       -2.85019
H          0.76046       -4.12654       -2.05706
H          4.60570       -3.08443       -5.33607
H          6.13397       -3.30230       -4.41590
H          4.98457       -4.66581       -4.55805
H         -0.76723       -2.76837       -3.21574
C         -1.62923       -0.84704       -3.04889
C         -0.40395       -1.77397       -2.90121
C         -2.81562       -1.34046       -2.20209
H         -1.39821        0.16950       -2.68452
H         -1.93250       -0.78657       -4.11294
H         -3.09357       -2.37472       -2.49681
H         -2.53486       -1.34355       -1.12364
C         -4.02404       -0.42890       -2.38821
H         -0.31294       -1.85806       -1.84655
H         -3.78223        0.60448       -2.05846
H         -4.32105       -0.41070       -3.45805
H         -4.87687       -0.80572       -1.78591
C          2.35311        3.38085        3.04114
C          1.11957        3.94035        2.76432
C          0.50339        3.11316        1.84441
C          1.39273        2.08660        1.60122
N          2.50852        2.25876        2.31873
C          1.16875        0.95001        0.62558
N          2.34971        0.03897        0.47974
C          2.16924       -1.37064        0.90232
H          0.71555        4.85395        3.17900
H          3.09762        3.77517        3.71859
H         -0.47073        3.25444        1.39579
H          0.99837        1.48062       -0.31475
H          0.23198        0.42213        0.88394
C          1.20838       -2.07627       -0.01942
C          3.52409       -2.08277        0.77881
C          1.64912       -1.49216        2.35157
H          1.60372       -1.96529       -1.05299
H          1.11723       -3.15852        0.21149
H          0.20091       -1.63267        0.11246
H          4.26790       -1.63215        1.46440
H          3.42183       -3.16343        1.02295
H          3.90642       -2.00352       -0.26234
H          2.34294       -1.00019        3.06025
H          0.64279       -1.03939        2.47227
H          1.54703       -2.56426        2.63093
Mg         3.24235        0.16265       -1.34674
C         -0.07812       -2.12555       -6.17695
C          2.19408       -1.96938       -6.86512
O          1.27801       -1.83401       -5.79344
C         -0.34430       -3.47461       -6.87257
C          1.98089       -0.92708       -7.97199
H         -0.69832       -2.17208       -5.28921
H         -0.50819       -1.28694       -6.76149
H          3.21659       -1.82871       -6.47726
H          2.17236       -2.99977       -7.27449
H          2.20776        0.08785       -7.59774
H          2.66040       -1.14478       -8.81994
H          0.94685       -0.93934       -8.37259
H         -0.01802       -4.32291       -6.23688
H         -1.43905       -3.57912       -7.04814
H          0.13600       -3.53731       -7.86868
C          6.25717        0.17734       -0.88399
C          7.34547        0.22778       -1.74724
C          6.83125        0.26938       -3.02958
C          5.45618        0.23583       -2.88975
N          5.12026        0.18242       -1.59884
C          4.41585        0.24001       -3.98061
N          3.02296        0.16102       -3.41866
C          2.28743        1.43440       -3.62098
H          8.39150        0.22989       -1.46601
H          6.30752        0.13080        0.19327
H          7.39879        0.31255       -3.95063
H          4.58180       -0.60499       -4.67580
H          4.62057        1.15863       -4.55829
C          2.14918        1.85337       -5.10705
C          0.89440        1.17205       -3.12468
C          2.92943        2.58656       -2.80390
H          1.68783        1.02924       -5.68158
H          1.48719        2.74261       -5.19098
H          3.10052        2.13608       -5.59402
H          0.93606        0.66961       -2.15213
H          0.27266        2.09131       -3.08642
H          0.44564        0.45308       -3.82835
H          3.01682        2.32399       -1.72876
H          3.94305        2.84434       -3.17748
H          2.31435        3.50927       -2.88354
