110
speciation2419.ct
Na         0.33592        1.11075       -0.25998
Mg        -5.76501        0.95782        3.58180
C          1.93382        3.16287       -1.87311
C          0.66976        4.23332       -0.18771
O          0.85380        3.06865       -0.97207
C          3.30575        3.35727       -1.20409
C          0.33350        5.46302       -1.04453
H          1.90787        2.24438       -2.45162
H          1.76713        3.91668       -2.67015
H         -0.18743        4.04377        0.46665
H          1.52741        4.41712        0.48282
H         -0.53573        5.24961       -1.70316
H          0.09559        6.32085       -0.38622
H          1.19684        5.76794       -1.67479
H          3.47295        2.58411       -0.42377
H          4.11617        3.29523       -1.96063
H          3.38138        4.36538       -0.74514
H         -5.88810       -0.64235        5.67891
C         -4.01033       -1.24870        4.74115
C         -5.46460       -0.77883        4.66088
C         -3.03828       -0.24292        5.38084
H         -3.97352       -2.20035        5.31503
H         -3.65464       -1.45585        3.71030
H         -2.02442       -0.70315        5.36711
H         -2.99677        0.69433        4.78515
C         -3.37670        0.09692        6.83379
H         -6.05917       -1.56143        4.14817
H         -4.33076        0.65994        6.89181
H         -3.45237       -0.82849        7.44301
H         -2.57246        0.73423        7.26105
C         -4.96705        3.34695        2.45076
C         -4.09841        4.12851        1.73268
C         -3.09563        3.29788        1.30231
C         -3.40232        2.02368        1.74857
N         -4.55258        2.06694        2.47735
C         -2.53583        0.80896        1.50590
N         -1.89986        0.74079        0.15007
C         -2.73682        0.51987       -1.05131
H         -4.18180        5.19011        1.54994
H         -5.86139        3.70215        2.94398
H         -2.24877        3.58309        0.71419
H         -3.05342       -0.13282        1.78382
H         -1.73754        0.93220        2.24836
C         -3.57213        1.76602       -1.36734
C         -1.79135        0.28759       -2.25315
C         -3.64214       -0.71881       -0.89690
H         -2.90568        2.65248       -1.44780
H         -4.10305        1.64484       -2.33286
H         -4.34892        1.94314       -0.60230
H         -1.19522       -0.64163       -2.14557
H         -2.36809        0.17964       -3.19631
H         -1.08630        1.13990       -2.36965
H         -3.02833       -1.63723       -0.76608
H         -4.32189       -0.62082       -0.02897
H         -4.27268       -0.84643       -1.80301
Na        -0.31996       -0.58176       -0.18030
Mg         1.29106       -3.23072       -2.61937
C          0.92947       -5.57671       -1.17814
C          1.45371       -5.91177       -3.45262
O          0.78482       -5.10007       -2.50608
C          2.37912       -5.64141       -0.67507
C          1.27956       -5.31800       -4.84360
H          0.38048       -4.86872       -0.52279
H          0.42770       -6.56215       -1.05923
H          2.54567       -5.96923       -3.26853
H          1.00253       -6.92921       -3.46015
H          1.76454       -4.31947       -4.89399
H          1.75820       -5.98302       -5.59450
H          0.20232       -5.21446       -5.09051
H          2.88341       -4.66370       -0.82005
H          2.38334       -5.89336        0.40594
H          2.95455       -6.43836       -1.19016
H         -7.89986        2.50766        3.33041
C         -8.79069        1.10539        4.70331
C         -7.85695        1.41563        3.52904
C         -8.34263        1.80405        5.99052
H         -9.81562        1.45184        4.44029
H         -8.82171        0.00737        4.86689
H         -7.33073        1.43244        6.26794
H         -8.28973        2.90268        5.83559
C         -9.30750        1.52056        7.14284
H         -8.24480        0.89702        2.62739
H        -10.31216        1.94081        6.92117
H         -9.40271        0.42695        7.31543
H         -8.92811        1.99253        8.07469
C          1.87788       -0.75371       -3.95138
C          2.77309        0.28889       -3.92312
C          3.27047        0.33524       -2.63044
C          2.61019       -0.64049       -1.91215
N          1.81035       -1.31319       -2.73558
C          2.84187       -1.03115       -0.50026
N          1.64344       -0.72524        0.31480
C          1.68755       -1.12661        1.73382
H          3.08514        0.88883       -4.76559
H          1.40325       -1.15252       -4.83765
H          4.04846        0.98850       -2.26853
H          3.70985       -0.45645       -0.11964
H          3.08610       -2.11317       -0.48886
C          2.81407       -0.38961        2.47143
C          0.36381       -0.71405        2.37984
C          1.82459       -2.66019        1.87890
H          2.69182        0.71028        2.34163
H          2.78226       -0.62056        3.55660
H          3.81220       -0.68323        2.09438
H         -0.50340       -1.22971        1.90942
H          0.34212       -0.96210        3.45921
H          0.27049        0.38272        2.26571
H          0.98693       -3.16985        1.35553
H          2.78005       -3.03490        1.46568
H          1.79558       -2.94743        2.95162
