66
speciation184.ct
Na         5.60677       -2.86728        1.33172
Mg         2.06936        4.15002       -3.47177
H          1.93868        5.38642       -5.79592
C          0.56424        6.58340       -4.62414
C          1.17524        5.23446       -5.00761
C          1.61828        7.56545       -4.10305
H          0.08353        7.01779       -5.52946
H         -0.21999        6.42594       -3.85217
H          2.08514        7.14160       -3.18801
H          2.40916        7.71466       -4.87865
C          1.01037        8.91746       -3.75791
H          0.37792        4.57740       -5.40452
H          0.54957        9.38004       -4.66021
H          0.22893        8.79992       -2.97522
H          1.79740        9.59589       -3.37672
C          2.59239       -0.96628       -3.97901
C          2.68834       -2.33341       -4.12893
C          3.24178       -2.81590       -2.96828
C          3.47137       -1.71947       -2.16147
N          3.06458       -0.58076       -2.77607
C          4.07515       -1.81465       -0.80132
N          5.33845       -2.56803       -0.76916
C          6.59346       -1.90966       -1.20479
H          2.38784       -2.91530       -4.98983
H          2.19726       -0.28125       -4.71763
H          3.46291       -3.84958       -2.73904
H          3.34966       -2.38597       -0.18145
H          4.15921       -0.81620       -0.30964
C          6.83281       -0.59682       -0.43338
C          7.75298       -2.87839       -0.88101
C          6.60798       -1.63932       -2.72276
H          6.84135       -0.78481        0.66099
H          7.80999       -0.15378       -0.72169
H          6.06033        0.15993       -0.67122
H          7.71794       -3.77857       -1.53339
H          8.74136       -2.38957       -1.02699
H          7.69656       -3.22523        0.17298
H          6.48259       -2.58858       -3.28896
H          5.80674       -0.93844       -3.02246
H          7.57589       -1.18327       -3.02583
Mg         3.02945        1.36541       -2.36220
C         -1.03050        1.91934       -0.17792
C         -1.29857        2.45632       -1.41407
C         -0.16691        3.15454       -1.82382
C          0.75949        3.03250       -0.86452
N          0.27515        2.25453        0.20804
C          2.11048        3.69223       -0.82617
N          2.99432        3.31158       -1.94832
C          4.36769        3.92919       -1.85354
H         -2.23337        2.36161       -1.94956
H         -1.71464        1.33361        0.42221
H         -0.06728        3.71415       -2.73995
H          2.55200        3.39931        0.14524
H          1.93200        4.78560       -0.83606
C          5.07350        3.59500       -0.51984
C          5.24271        3.38842       -2.99552
C          4.30689        5.46888       -2.01009
H          5.13996        2.49743       -0.36907
H          6.10588        4.01096       -0.51226
H          4.56879        4.05280        0.35767
H          4.77527        3.57704       -3.98214
H          6.23521        3.89912       -2.98618
H          5.42768        2.30089       -2.87755
H          3.88473        5.74552       -2.99564
H          3.72377        5.96229       -1.20571
H          5.33181        5.89949       -1.95277
