81
speciation764.ct
Na         1.36575        2.64879       -1.33049
Mg         5.71398       -0.96472       -3.64241
C          7.06973       -1.89979       -5.77776
C          7.70746        0.29723       -5.13600
O          6.63571       -0.62375       -5.31506
C          8.18555       -2.56406       -4.94928
C          8.38258        0.71042       -6.45311
H          6.18450       -2.56561       -5.74689
H          7.34575       -1.86137       -6.85149
H          7.30118        1.22488       -4.68463
H          8.45907       -0.08207       -4.41485
H          7.67136        1.27062       -7.09521
H          9.25157        1.36533       -6.22987
H          8.77258       -0.16054       -7.01709
H          7.91292       -2.59596       -3.87432
H          8.34911       -3.60030       -5.31129
H          9.15252       -2.03221       -5.06431
H          1.05388        0.48910       -0.17446
C          1.94508       -0.90388        1.22807
C          1.69463       -0.41502       -0.20791
C          2.69391        0.11917        2.07288
H          0.96882       -1.13610        1.70770
H          2.54059       -1.83270        1.23290
H          3.65240        0.37404        1.57959
H          2.07934        1.03930        2.17676
C          2.99353       -0.45920        3.45823
H          1.11433       -1.19857       -0.74247
H          2.05161       -0.73264        3.97990
H          3.62553       -1.37000        3.36363
H          3.54235        0.28658        4.06782
C          2.36082        5.39140       -0.07306
C          3.62158        5.94542       -0.01938
C          4.47684        5.07874       -0.66815
C          3.68875        4.02767       -1.09984
N          2.41804        4.22314       -0.72658
C          4.16978        2.80210       -1.84843
N          3.07004        1.88152       -2.23084
C          2.76623        1.82438       -3.67358
H          3.89045        6.88638        0.45540
H          1.45443        5.80111        0.35120
H          5.54040        5.19240       -0.80426
H          4.81786        2.26816       -1.15477
H          4.79045        3.11758       -2.71049
C          3.92531        1.17039       -4.45590
C          1.51602        0.95138       -3.81689
C          2.45458        3.21934       -4.25937
H          4.16438        0.19738       -4.00108
H          3.64917        0.99641       -5.51769
H          4.84338        1.79283       -4.45353
H          0.66821        1.39797       -3.25379
H          1.21915        0.83862       -4.88004
H          1.70431       -0.04768       -3.39436
H          1.63972        3.70448       -3.68193
H          3.34081        3.88597       -4.24034
H          2.13409        3.12893       -5.31916
Mg         3.32436        0.01506       -1.56096
C          6.79431        2.03362        0.55132
C          7.36985        2.15098       -0.69591
C          7.07372        0.97455       -1.39315
C          6.34576        0.17821       -0.60225
N          6.14699        0.79328        0.65519
C          5.84024       -1.22378       -0.90289
N          4.76849       -1.31448       -1.92665
C          4.24693       -2.70602       -2.16153
H          7.92932        3.00259       -1.04686
H          6.82622        2.78241        1.33183
H          7.40931        0.75566       -2.39429
H          5.46137       -1.59941        0.06363
H          6.72795       -1.81964       -1.20199
C          3.66240       -3.36339       -0.89368
C          3.12022       -2.63410       -3.20190
C          5.33593       -3.64850       -2.71108
H          2.78971       -2.79834       -0.56651
H          3.29062       -4.38480       -1.11612
H          4.40240       -3.46441       -0.07395
H          3.48071       -2.17450       -4.14513
H          2.72041       -3.64449       -3.43003
H          2.27960       -2.03666       -2.80282
H          5.71338       -3.27248       -3.67331
H          6.17913       -3.78358       -2.00546
H          4.90842       -4.65907       -2.89691
