96
speciation1491.ct
Na        -3.42736        0.09387       -1.19825
Li        -0.53388        2.68083        4.37936
C          1.36229        3.96757        2.37868
C          2.23892        3.75380        4.52385
O          1.05374        3.78476        3.76033
C          1.99330        5.34229        2.05026
C          1.87798        3.52413        5.96161
H          1.97919        3.13856        1.96418
H          0.41186        3.99350        1.84959
H          2.93080        2.95515        4.17703
H          2.73299        4.74853        4.50954
H          1.39189        2.53250        6.05189
H          2.78753        3.55619        6.59229
H          1.20155        4.34338        6.27968
H          3.01775        5.44411        2.46171
H          2.08485        5.47278        0.94930
H          1.35914        6.16662        2.44276
H         -2.18029        2.74255        6.54637
C         -1.76021        4.81994        6.54914
C         -1.30619        3.37910        6.31912
C         -2.23812        5.00033        8.00107
H         -0.92592        5.51956        6.33355
H         -2.60735        5.03901        5.86731
H         -3.06834        4.28945        8.20770
H         -1.40580        4.78358        8.70705
C         -2.74293        6.41603        8.25635
H         -0.53575        3.12757        7.07430
H         -1.91904        7.14861        8.12602
H         -3.56983        6.66108        7.55666
H         -3.12624        6.49055        9.29667
C         -2.36344        4.32174        3.03380
C         -3.31052        4.51822        2.06879
C         -3.46710        3.31709        1.43503
C         -2.59971        2.41167        2.02360
N         -1.93915        3.04121        3.03935
C         -2.36554        0.95871        1.62491
N         -2.00160        0.66546        0.19679
C         -0.85516        1.31389       -0.45700
H         -3.81966        5.44657        1.83593
H         -1.98782        5.08417        3.69655
H         -4.11660        3.18211        0.61516
H         -3.28505        0.37936        1.86583
H         -1.57806        0.57101        2.28520
C          0.43988        0.84032        0.21026
C         -0.85311        0.87613       -1.94047
C         -0.94728        2.85520       -0.48563
H          0.50143       -0.26856        0.14836
H          1.33097        1.27235       -0.29211
H          0.46091        1.13070        1.28329
H         -1.77997        1.22485       -2.44190
H          0.00646        1.32644       -2.48238
H         -0.80060       -0.22781       -2.03299
H         -1.87136        3.19452       -0.99336
H         -0.94035        3.27762        0.50969
H         -0.06607        3.28991       -1.00344
Li        -3.51708        0.59388       -1.12009
C          0.67143       -0.19006        4.52802
C         -1.55463        0.12518        5.33885
O         -0.39350        0.72788        4.75692
C          0.29932       -1.37181        3.61268
C         -1.32161       -0.53135        6.71592
H          1.51073        0.35865        4.05865
H          1.06898       -0.56981        5.49453
H         -2.31452        0.91009        5.47902
H         -2.04684       -0.57774        4.63876
H         -0.89772        0.19521        7.44068
H         -2.28781       -0.90524        7.12075
H         -0.64971       -1.41252        6.64590
H         -0.00819       -1.01153        2.61396
H          1.17372       -2.04301        3.49124
H         -0.51367       -1.99712        4.03963
C         -2.43227       -1.62663       -5.48648
C         -2.30285       -0.25916       -5.61458
C         -3.32750        0.32512       -4.88334
C         -4.05097       -0.65215       -4.32459
N         -3.52529       -1.91913       -4.66313
C         -5.29432       -0.49804       -3.49842
N         -5.12391        0.38604       -2.32844
C         -6.25507        0.42088       -1.37630
H         -1.54335        0.24273       -6.19541
H         -1.79609       -2.36960       -5.94951
H         -3.51856        1.38692       -4.79809
H         -5.60175       -1.52252       -3.20678
H         -6.08197       -0.05999       -4.14876
C         -6.77370       -0.96751       -0.95886
C         -5.74618        1.10375       -0.12068
C         -7.38680        1.29266       -1.94750
H         -5.94359       -1.58702       -0.53349
H         -7.55360       -0.86923       -0.16983
H         -7.24176       -1.52195       -1.79511
H         -5.33680        2.05719       -0.46677
H         -6.53857        1.28397        0.63416
H         -4.95984        0.49501        0.37181
H         -6.99295        2.30807       -2.17277
H         -7.80281        0.85805       -2.87439
H         -8.20115        1.39729       -1.19881
