81
speciation638.ct
Na         2.18075        0.15267       -1.73245
Mg         6.28059        3.68575       -5.13679
C          8.30405        2.69700       -6.29522
C          8.22945        5.00409       -6.84960
O          7.49083        3.80191       -6.63158
C          9.21266        2.92353       -5.08288
C          9.15720        4.93788       -8.07170
H          7.60107        1.89974       -6.00416
H          8.84924        2.30075       -7.17598
H          7.51121        5.80688       -7.09148
H          8.79416        5.31853       -5.94687
H          8.56324        4.76680       -8.99429
H          9.69824        5.90389       -8.17922
H          9.92132        4.14164       -7.97236
H          8.63309        3.37184       -4.24828
H          9.62641        1.95149       -4.74739
H         10.06474        3.58405       -5.34448
H          5.79399        5.41960       -3.15799
C          6.15175        6.89079       -4.69110
C          6.44788        5.53431       -4.04012
C          4.72996        6.99176       -5.22430
H          6.33134        7.70265       -3.94662
H          6.86674        7.07735       -5.52027
H          4.53400        6.18567       -5.95299
H          4.01033        6.90729       -4.37616
C          4.49490        8.34255       -5.91361
H          7.49773        5.54558       -3.68046
H          4.67946        9.18663       -5.22287
H          5.18708        8.44400       -6.77444
H          3.45260        8.40921       -6.28954
C          3.52684       -1.95905       -3.03498
C          4.52771       -2.59193       -3.71964
C          5.42988       -1.61812       -4.07213
C          4.95083       -0.40616       -3.59877
N          3.76847       -0.63404       -2.94378
C          5.75799        0.91025       -3.77964
N          5.12637        2.05393       -4.50179
C          4.21810        1.72794       -5.65948
H          4.60195       -3.65246       -3.91539
H          2.66648       -2.44249       -2.59125
H          6.35359       -1.77828       -4.60461
H          6.70317        0.65781       -4.29549
H          6.03963        1.27575       -2.76804
C          2.83484        1.17664       -5.22013
C          3.91679        3.03378       -6.41039
C          4.85754        0.74082       -6.66735
H          2.36499        1.82442       -4.44974
H          2.14346        1.11722       -6.08806
H          2.85275        0.13750       -4.88469
H          4.84440        3.47837       -6.81823
H          3.23469        2.83432       -7.27073
H          3.42067        3.76547       -5.73999
H          5.78396        1.15067       -7.10881
H          5.09633       -0.23334       -6.20945
H          4.14965        0.51918       -7.49576
Mg         4.02642        2.38273       -2.87634
C          4.54883       -1.10633       -0.18171
C          5.69084       -0.69494        0.46364
C          5.61381        0.68046        0.54858
C          4.42519        1.04504       -0.05490
N          3.80323       -0.03485       -0.51965
C          3.85939        2.43183       -0.11871
N          2.92646        2.71153       -1.25089
C          2.25664        4.03981       -1.09236
H          6.49394       -1.32941        0.81485
H          4.30242       -2.12885       -0.43925
H          6.34383        1.34028        0.99341
H          3.31982        2.49702        0.84288
H          4.70440        3.14582       -0.09269
C          3.28896        5.18961       -1.03234
C          1.33615        4.24858       -2.29805
C          1.37482        4.10708        0.18529
H          3.98629        5.12215       -1.88611
H          2.78479        6.17878       -1.05161
H          3.87531        5.16277       -0.08819
H          0.55461        3.45846       -2.31937
H          0.82526        5.23506       -2.22597
H          1.91184        4.21373       -3.24522
H          0.62967        3.28419        0.20006
H          1.96333        4.06457        1.12492
H          0.83230        5.07607        0.23525
