68
speciation140.ct
Na         0.76595        1.54485       -0.37016
Mg         3.38218        0.08335       -1.63630
C          5.81550        0.35518       -2.75767
C          4.16776        0.88768       -4.39531
O          4.49078        0.13243       -3.22758
C          6.17377        1.82693       -2.49386
C          4.99943        0.51806       -5.62711
H          5.90540       -0.17932       -1.78913
H          6.56034       -0.12471       -3.42594
H          3.14366        0.61954       -4.71348
H          4.19074        1.97998       -4.19816
H          4.82637       -0.54608       -5.89534
H          4.67447        1.15124       -6.48137
H          6.08155        0.69346       -5.47360
H          5.44195        2.28525       -1.80225
H          7.18044        1.88866       -2.03099
H          6.21269        2.41602       -3.43346
C         -1.87754        0.68603        0.92919
C         -2.31588       -0.60694        1.16038
C         -1.25220       -1.45692        0.87828
C         -0.19397       -0.64494        0.51575
N         -0.60181        0.62834        0.50484
C          1.20993       -1.07073        0.00426
N          2.24500        0.03300       -0.00400
C          3.11100        0.08179        1.20417
H         -3.32540       -0.89123        1.42325
H         -2.47541        1.58498        0.95506
H         -1.26932       -2.53679        0.89072
H          1.08123       -1.44085       -1.03733
H          1.53064       -1.95270        0.57498
C          3.96359       -1.20941        1.33635
C          4.07909        1.25690        1.03468
C          2.27508        0.29836        2.47878
H          4.54768       -1.38962        0.40823
H          4.67317       -1.12003        2.18660
H          3.36629       -2.11734        1.54813
H          3.52327        2.21195        0.92334
H          4.75581        1.33619        1.91274
H          4.70688        1.10553        0.13147
H          1.68601        1.23642        2.39737
H          1.57601       -0.54513        2.65562
H          2.93803        0.37349        3.36789
Na         3.41167        3.31232       -1.60795
C         -1.61747        0.00730       -2.26112
C         -1.61883       -0.31386       -3.60039
C         -0.46664        0.23028       -4.13267
C          0.15291        0.87830       -3.08644
N         -0.49413        0.69712       -1.95072
C          1.39705        1.69130       -3.08238
N          1.41683        2.67282       -1.97058
C          0.58426        3.89056       -2.08137
H         -2.37248       -0.89342       -4.11825
H         -2.38202       -0.28583       -1.55720
H         -0.13468        0.15646       -5.15749
H          1.60542        2.13783       -4.07048
H          2.15967        0.95289       -2.83604
C         -0.92984        3.58792       -2.08137
C          0.89240        4.74046       -0.83364
C          0.94833        4.69532       -3.33906
H         -1.22097        3.03203       -1.16418
H         -1.51387        4.53136       -2.09107
H         -1.24051        3.01542       -2.97714
H          1.96582        5.01141       -0.79621
H          0.29410        5.67773       -0.83239
H          0.64615        4.16632        0.08900
H          2.03221        4.93808       -3.34701
H          0.69772        4.13182       -4.26217
H          0.36569        5.63968       -3.36831
