68
speciation135.ct
Na         0.92764        0.05877        0.03619
Mg         1.95882        0.81762        3.18549
C          3.64846        2.74072        4.08923
C          1.36861        3.39247        3.75772
O          2.46849        2.62219        3.29420
C          3.47825        2.75765        5.61891
C          1.53098        4.85980        3.38050
H          4.27534        1.85512        3.86256
H          4.23181        3.62605        3.75912
H          0.45032        3.02293        3.25625
H          1.16355        3.27130        4.84149
H          1.61496        4.95014        2.27760
H          0.64751        5.43714        3.72606
H          2.43862        5.28557        3.85505
H          2.87814        1.88762        5.95757
H          4.47877        2.70505        6.09857
H          3.00778        3.70339        5.96264
C          0.17949        0.07951        4.69010
C         -1.04865       -0.24650        5.12217
C         -1.87662       -0.18741        4.01370
C         -1.11397        0.19635        2.87641
N          0.17779        0.35793        3.36722
C         -1.79236        0.58505        1.44416
N         -1.44236        0.05877        0.03619
C         -1.96992       -0.77536       -1.07121
H         -1.29418       -0.45875        6.16645
H          1.06203        0.15742        5.33027
H         -2.92481       -0.35439        4.06002
H         -2.87817        0.50109        1.60788
H         -1.59031        1.67656        1.41298
C         -3.49727       -0.68716       -1.17409
C         -1.35691       -0.22796       -2.37418
C         -1.48551       -2.25695       -0.97622
H         -3.80363        0.36816       -1.33586
H         -3.85440       -1.28678       -2.04134
H         -3.99411       -1.06807       -0.26054
H         -0.24849       -0.27891       -2.32986
H         -1.68567       -0.82755       -3.25239
H         -1.64449        0.82972       -2.53904
H         -0.37896       -2.29373       -0.91640
H         -1.87830       -2.85799       -0.13690
H         -1.78857       -2.82040       -1.88532
Na        -2.29908       -1.50820        1.31290
C          2.79688       -2.10858        3.88812
C          3.72708       -2.98528        3.37205
C          4.37000       -2.31094        2.34314
C          3.77073       -1.06297        2.27402
N          2.84034       -0.93755        3.20793
C          4.00863        0.10134        1.33685
N          3.29764        0.05877        0.03619
C          3.65826       -1.08511       -0.86877
H          3.90567       -4.01125        3.68849
H          2.11556       -2.33008        4.70905
H          5.14721       -2.72739        1.73309
H          5.10318        0.31449        1.23447
H          3.60581        0.99422        1.83338
C          2.95672       -2.42787       -0.47499
C          3.12346       -0.80302       -2.28496
C          5.19437       -1.23315       -0.98655
H          1.87824       -2.40718       -0.71769
H          3.40876       -3.27893       -1.03014
H          2.94366       -2.72310        0.56596
H          3.54048        0.12919       -2.70915
H          3.37515       -1.65182       -2.96428
H          2.01707       -0.71700       -2.26943
H          5.62491       -0.28580       -1.38105
H          5.68837       -1.45430       -0.02478
H          5.46235       -2.05131       -1.68689
