66
speciation216.ct
Na         5.10677       -2.21555       -0.91534
Mg         1.82355       -0.06991        3.83099
H          3.21582        2.11901        2.91905
C          1.57000        3.20159        3.75252
C          2.12751        1.95263        3.04587
C          2.23914        3.46563        5.10698
H          1.75720        4.08490        3.09988
H          0.47187        3.09316        3.88446
H          2.05527        2.61366        5.77856
H          3.33691        3.57939        4.97524
C          1.69401        4.73479        5.76676
H          1.64387        1.89732        2.04702
H          1.91945        5.62648        5.14314
H          0.59491        4.66101        5.91055
H          2.16952        4.87407        6.76144
C          2.09685       -3.07145        2.87061
C          2.94842       -3.88688        2.16225
C          3.84010       -3.06040        1.53448
C          3.49035       -1.77371        1.88667
N          2.45379       -1.76393        2.75012
C          4.17528       -0.55266        1.38329
N          4.07280       -0.53725       -0.08178
C          4.58841        0.67076       -0.75131
H          2.93400       -4.96819        2.12687
H          1.29607       -3.45898        3.47795
H          4.65747       -3.37873        0.90547
H          5.21871       -0.55685        1.73016
H          3.63235        0.30223        1.80864
C          6.06395        0.92986       -0.38593
C          4.49424        0.42403       -2.26533
C          3.73175        1.90433       -0.40255
H          6.68281        0.03843       -0.62471
H          6.45542        1.79904       -0.95425
H          6.17954        1.16552        0.69260
H          3.44415        0.22365       -2.56892
H          4.86257        1.30574       -2.83181
H          5.11126       -0.45297       -2.55718
H          2.65939        1.71045       -0.62295
H          3.83282        2.18016        0.66361
H          4.06078        2.78486       -0.99332
Mg         2.18862       -0.71627       -0.57307
C         -1.18320       -0.14137        3.63239
C         -2.12475       -0.03699        4.63779
C         -1.42896        0.06371        5.82920
C         -0.09366        0.01368        5.50131
N          0.04546       -0.11066        4.17398
C          1.08484        0.08303        6.46277
N          2.39064       -0.10907        5.76387
C          3.17423       -1.29686        6.20670
H         -3.20016       -0.01985        4.51530
H         -1.38184       -0.20027        2.57016
H         -1.84947        0.16295        6.82175
H          0.91351       -0.67914        7.24357
H          1.07688        1.05867        6.98379
C          2.33551       -2.57387        6.05002
C          4.46368       -1.36960        5.36088
C          3.62640       -1.19156        7.67713
H          1.69003       -2.43777        5.18905
H          2.95846       -3.49117        5.96996
H          1.62015       -2.72087        6.88197
H          5.09637       -0.47191        5.53265
H          5.06485       -2.26747        5.62855
H          4.26793       -1.41575        4.28782
H          4.24328       -0.28367        7.83602
H          2.76507       -1.15693        8.37257
H          4.23110       -2.08613        7.95033
