81
speciation416.ct
Na         1.07165       -0.06735       -0.01819
Mg         5.56156       -4.48284       -4.99641
C         -1.76619       -1.15180        0.73228
C         -1.84842        0.05423       -1.29333
O         -1.24835       -0.06735       -0.01819
C         -1.51022       -2.53217        0.11418
C         -1.19774        1.20082       -2.05421
H         -1.25422       -1.12837        1.71754
H         -2.84768       -1.00330        0.94560
H         -1.71460       -0.85510       -1.91400
H         -2.92892        0.29402       -1.17799
H         -0.12487        0.97634       -2.23646
H         -1.70406        1.33114       -3.03487
H         -1.28136        2.14584       -1.47805
H         -0.43109       -2.66053       -0.11256
H         -1.82467       -3.31836        0.83219
H         -2.10785       -2.68201       -0.80802
H          7.50567       -3.17170       -6.12942
C          6.33279       -3.84305       -7.84719
C          6.92004       -4.05671       -6.45742
C          5.33182       -2.68843       -7.87495
H          7.16523       -3.63726       -8.55579
H          5.82030       -4.77829       -8.16042
H          4.49348       -2.91336       -7.18393
H          5.82570       -1.74636       -7.55094
C          4.77187       -2.49861       -9.28323
H          7.60181       -4.93229       -6.49952
H          5.58872       -2.24092       -9.99127
H          4.27365       -3.42977       -9.62938
H          4.02679       -1.67596       -9.28440
C          5.65652       -1.01772       -3.31800
C          5.95802        0.20875       -3.86416
C          5.36597        1.15752       -3.05508
C          4.72622        0.45708       -2.05048
N          4.89798       -0.85662       -2.20731
C          3.93499        1.02007       -0.90899
N          3.44165       -0.06735       -0.01819
C          3.87597        0.05366        1.39989
H          6.54719        0.38209       -4.75527
H          5.97681       -1.96189       -3.73195
H          5.40593        2.22978       -3.18711
H          3.07052        1.58754       -1.30917
H          4.60195        1.73506       -0.39163
C          3.37896        1.37444        2.03218
C          3.25138       -1.09557        2.19493
C          5.41221       -0.07622        1.52918
H          2.27347        1.44888        1.95123
H          3.65461        1.41378        3.10884
H          3.82444        2.26984        1.55756
H          3.69351       -2.04161        1.85177
H          3.48261       -1.00927        3.27913
H          2.14684       -1.11677        2.07008
H          5.75337       -1.03265        1.07506
H          5.95432        0.75101        1.03225
H          5.71342       -0.07563        2.59962
Mg         3.97512       -1.79331       -0.79042
C          2.96281       -4.24670        0.69402
C          3.03676       -5.61687        0.59677
C          3.78173       -5.89351       -0.53257
C          4.12555       -4.67144       -1.07342
N          3.65269       -3.67013       -0.31146
C          4.88288       -4.40789       -2.33649
N          4.23637       -4.89851       -3.57121
C          2.86644       -4.40213       -3.92459
H          2.58191       -6.32606        1.27150
H          2.42125       -3.71372        1.46123
H          4.02748       -6.87031       -0.92279
H          5.01886       -3.33282       -2.41319
H          5.88989       -4.86409       -2.25089
C          2.88085       -2.89823       -4.24072
C          2.41558       -5.17959       -5.16992
C          1.78362       -4.66178       -2.84175
H          3.62540       -2.66444       -5.02611
H          1.87838       -2.56228       -4.58625
H          3.11586       -2.31555       -3.33003
H          2.34023       -6.26419       -4.93211
H          1.41109       -4.83614       -5.50575
H          3.13282       -5.04639       -6.00423
H          1.77376       -5.72561       -2.52345
H          1.89220       -4.00464       -1.96482
H          0.77212       -4.40910       -3.22701
