83
speciation489.ct
Na         2.70880        0.51218        2.87784
Mg         2.22870        4.54895       -1.25530
C          1.27094        2.24008        5.19708
C          1.97902        0.08612        5.85945
O          1.47849        0.89116        4.80789
C          2.50625        2.96117        5.75468
C          2.26566       -1.31528        5.33540
H          0.94265        2.78837        4.28967
H          0.42637        2.30449        5.91862
H          2.94531        0.46135        6.25480
H          1.22252        0.00262        6.67017
H          3.04624       -1.27546        4.54544
H          2.64120       -1.95333        6.16407
H          1.34465       -1.77101        4.91689
H          3.35911        2.86617        5.05151
H          2.27005        4.03636        5.89746
H          2.79187        2.56504        6.75166
C          4.59183       -1.01974        0.57593
C          5.24312       -0.87409       -0.63088
C          5.01222        0.42021       -1.04427
C          4.21825        0.99997       -0.07545
N          3.96563        0.12503        0.90619
C          3.67891        2.38758       -0.07339
N          2.86049        2.66191       -1.25814
C          1.58340        1.96077       -1.51516
H          5.82297       -1.62681       -1.14809
H          4.57259       -1.91626        1.18125
H          5.37465        0.87880       -1.94646
H          3.09479        2.57698        0.85060
H          4.53586        3.09295       -0.07413
C          0.64954        2.04844       -0.29532
C          0.90585        2.69683       -2.69122
C          1.79511        0.50113       -1.96105
H          0.49265        3.11503       -0.01717
H         -0.34026        1.60039       -0.52810
H          1.07457        1.51168        0.57520
H          1.54435        2.66350       -3.60233
H         -0.07543        2.24038       -2.94247
H          0.72354        3.76392       -2.44755
H          2.48191        0.46815       -2.83752
H          2.19968       -0.13364       -1.15713
H          0.82661        0.05063       -2.27066
Na         3.97574        2.87702       -3.17257
C          1.12972        6.90118       -2.47399
C          2.44264        7.29234       -0.54768
O          1.61277        6.38858       -1.25252
C          2.23817        7.16741       -3.46833
C          2.93564        6.63398        0.73256
H          0.46766        6.12267       -2.90687
H          0.49147        7.79795       -2.31774
H          3.34787        7.57329       -1.12377
H          1.85990        8.19621       -0.26209
H          3.55774        5.74646        0.48751
H          3.55700        7.35546        1.30574
H          2.07768        6.31763        1.36156
H          2.86828        6.25793       -3.47840
H          1.80735        7.37393       -4.47022
H          2.85131        8.04585       -3.18064
C          5.33785        0.42663       -5.01852
C          6.62195        0.34167       -5.53458
C          7.27964        1.49075       -5.14639
C          6.36178        2.21172       -4.41935
N          5.18840        1.57866       -4.34039
C          6.49974        3.58166       -3.84411
N          5.30290        4.34318       -4.22787
C          5.23718        4.82242       -5.64911
H          7.03295       -0.45752       -6.13694
H          4.55512       -0.31193       -5.14726
H          8.29468        1.78091       -5.38261
H          7.45721        4.07236       -4.09939
H          6.46777        3.47269       -2.73992
C          5.22730        3.69395       -6.70524
C          3.93541        5.60725       -5.85144
C          6.40350        5.79396       -5.95396
H          4.40192        2.97713       -6.50933
H          5.07783        4.11299       -7.72414
H          6.19546        3.16878       -6.75992
H          3.97644        6.53879       -5.26163
H          3.81431        5.93282       -6.90874
H          3.05374        4.99051       -5.57436
H          6.40320        6.63242       -5.22329
H          7.38617        5.28626       -5.90828
H          6.30563        6.22211       -6.97553
