68
speciation33.ct
Na         1.26650        1.39095        0.27146
Mg         1.89236        6.87252       -2.38301
C          1.09456        1.82149        3.71352
C         -0.05664        3.24904        2.31274
O          0.99281        2.30950        2.35671
C          0.00571        0.81123        4.11681
C         -0.24372        3.74237        0.90220
H          2.09188        1.37886        3.88353
H          1.12951        2.65344        4.45269
H         -1.02465        2.80099        2.62129
H          0.19863        4.13179        2.94104
H         -0.53787        2.91168        0.23974
H         -1.03269        4.51675        0.87304
H          0.70075        4.16926        0.55082
H         -0.08705       -0.00535        3.37224
H          0.26090        0.36289        5.10305
H         -0.97660        1.31093        4.24083
C         -1.71377        0.52074       -0.32978
C         -2.29914       -0.71220       -0.52248
C         -1.28290       -1.65021       -0.44723
C         -0.11335       -0.94510       -0.22722
N         -0.39056        0.36841       -0.14144
C          1.29285       -1.52874       -0.08983
N          2.33669       -0.46487       -0.08994
C          3.43449       -0.56239        0.89121
H         -3.34924       -0.89800       -0.68726
H         -2.23139        1.47081       -0.31557
H         -1.38852       -2.72058       -0.54962
H          1.49078       -2.18639       -0.96146
H          1.30728       -2.16679        0.81281
C          4.27378       -1.84138        0.77631
C          4.33461        0.67095        0.66812
C          2.83177       -0.51571        2.28168
H          4.75768       -1.92434       -0.21558
H          5.06798       -1.82860        1.56095
H          3.64922       -2.74056        0.95647
H          3.74122        1.61080        0.71478
H          5.13886        0.72872        1.43210
H          4.81297        0.62272       -0.33610
H          2.05509        0.22921        2.18866
H          2.31562       -1.44728        2.57638
H          3.58427       -0.26752        3.05831
Na         3.10579       -0.32887       -2.08562
C          1.03897        2.23839       -2.71769
C          1.30388        3.13700       -3.73175
C          1.99728        4.17420       -3.15897
C          2.13430        3.85634       -1.82066
N          1.52468        2.68264       -1.53579
C          2.88763        4.68098       -0.82796
N          2.22826        5.99082       -0.66677
C          2.88799        6.91982        0.28133
H          1.03423        3.04243       -4.77713
H          0.51481        1.30080       -2.84532
H          2.38093        5.05014       -3.66799
H          2.92352        4.13871        0.12344
H          3.90783        4.79730       -1.23986
C          4.35930        7.17868       -0.10787
C          2.13914        8.26366        0.22465
C          2.80347        6.36823        1.71659
H          4.42399        7.56607       -1.14939
H          4.81397        7.92803        0.57471
H          4.97396        6.26157       -0.02778
H          1.07202        8.14151        0.50829
H          2.60102        8.99897        0.92080
H          2.17912        8.69525       -0.80058
H          1.74577        6.16934        1.99098
H          3.38282        5.43590        1.83818
H          3.22995        7.10228        2.43035
