95
speciation1849.ct
Na         1.89709        6.47581       -5.43045
Mg         5.18530        4.08605       -2.03427
C          5.81665        1.12152       -0.89838
C          6.93469        2.02822       -2.77280
O          5.95569        2.24795       -1.78780
C          7.12194        0.59068       -0.26155
C          6.55501        0.95682       -3.79749
H          5.23979        1.42486       -0.03036
H          5.25388        0.29074       -1.37988
H          7.09536        2.98827       -3.30323
H          7.88894        1.79967       -2.27773
H          5.67072        1.28284       -4.37955
H          7.39736        0.78197       -4.48779
H          6.35678       -0.02000       -3.31871
H          7.66947        1.42060        0.23382
H          6.88269       -0.18057        0.50140
H          7.78149        0.08978       -1.00286
H         10.00267        4.95832       -5.04626
C          9.84258        2.99841       -4.24582
C          9.47584        4.47016       -4.20512
C          9.30755        2.32004       -5.51130
H         10.94275        2.86614       -4.17351
H          9.43884        2.51979       -3.35795
H          9.47880        1.22679       -5.41574
H          8.21749        2.51414       -5.61131
C         10.01013        2.78532       -6.78042
H          9.87618        4.92424       -3.27368
H          9.83692        3.86368       -6.96770
H         11.09988        2.58994       -6.69524
H          9.60834        2.21849       -7.64523
C          2.96407        3.09804       -0.25538
C          1.61099        3.06673       -0.01476
C          1.03464        3.84656       -0.97109
C          2.06264        4.31390       -1.75513
N          3.26406        3.84369       -1.34216
C          1.84218        5.25078       -2.91674
N          2.27132        4.74250       -4.23128
C          1.50964        3.63905       -4.87066
H          1.10791        2.53453        0.78319
H          3.66532        2.59430        0.36559
H         -0.01960        4.05888       -1.07814
H          2.42372        6.16825       -2.69975
H          0.77809        5.56487       -2.96164
C         -0.00557        3.93870       -4.94108
C          2.03441        3.50339       -6.31109
C          1.74629        2.29205       -4.15927
H         -0.19158        4.89417       -5.47653
H         -0.53683        3.12812       -5.48798
H         -0.46116        3.99619       -3.93147
H          3.12030        3.26803       -6.31305
H          1.50177        2.69304       -6.85588
H          1.88600        4.45028       -6.87590
H          2.83335        2.07015       -4.10028
H          1.31919        2.27592       -3.14116
H          1.25152        1.46739       -4.71795
Na         4.33864        4.28071       -4.17459
Mg         7.50787        5.26988       -4.41603
H          5.93117        3.69387       -6.14671
C          6.46063        5.05544       -7.76599
C          6.17113        4.76956       -6.26738
C          5.26351        4.64420       -8.67222
H          6.63185        6.14922       -7.89617
H          7.37133        4.51270       -8.08667
H          5.07226        3.55617       -8.56264
H          4.34262        5.19083       -8.36636
C          5.50471        4.93705      -10.15974
H          5.23629        5.33262       -6.08577
H          5.63814        6.02625      -10.33377
H          6.40075        4.39419      -10.52587
H          4.62563        4.59903      -10.75727
C          8.95387        7.72787       -5.24110
C          8.57769        9.02900       -5.00136
C          7.35435        8.98392       -4.34373
C          7.04269        7.64401       -4.21133
N          8.02636        6.91704       -4.72236
C          5.86827        6.91557       -3.53432
N          6.36725        5.79184       -2.66365
C          6.86248        6.34312       -1.33437
H          9.14878        9.90682       -5.26945
H          9.86801        7.39115       -5.71840
H          6.78445        9.83115       -3.99542
H          5.15371        7.60647       -3.06423
H          5.29169        6.45060       -4.33502
C          5.72700        7.07412       -0.55895
C          7.34003        5.19156       -0.44255
C          8.05901        7.33621       -1.45827
H          4.84951        6.40521       -0.43014
H          6.07616        7.40207        0.44168
H          5.39090        8.00864       -1.04937
H          8.18912        4.64574       -0.90369
H          7.68345        5.59134        0.54026
H          6.50894        4.48558       -0.23383
H          8.89983        6.88190       -2.02401
H          7.76397        8.29861       -1.91189
H          8.43730        7.62290       -0.45391
