96
speciation1567.ct
Na         0.16337       -0.67749        0.92362
Mg         3.98418        2.18905       -1.79542
C          3.38105        3.98543        0.54210
C          2.90230        1.79623        1.17918
O          3.24785        2.64551        0.08915
C          4.41939        4.16550        1.66213
C          3.14720        0.40122        0.79311
H          3.71268        4.59079       -0.32118
H          2.38832        4.38870        0.86367
H          3.51062        1.87806        2.09848
H          1.82099        1.94036        1.40827
H          4.21509        0.12206        0.81871
H          2.54132       -0.28145        1.43198
H          2.87479        0.43277       -0.24684
H          5.34292        3.62716        1.36804
H          4.64456        5.22832        1.87037
H          4.03193        3.77812        2.62698
H          6.70548        1.83906       -2.64900
C          6.80142        0.82238       -0.84164
C          6.26329        1.97406       -1.63711
C          6.30277       -0.46990       -1.46099
H          7.91678        0.84124       -0.85071
H          6.44801        0.93367        0.20177
H          5.20055       -0.43792       -1.49264
H          6.69709       -0.58150       -2.49829
C          6.71635       -1.65413       -0.61809
H          6.73984        2.86548       -1.17883
H          7.82158       -1.74166       -0.59811
H          6.33172       -1.51553        0.41599
H          6.27256       -2.57255       -1.05107
C          3.73936        0.08012       -4.10367
C          3.30461       -1.10723       -4.64579
C          2.53754       -1.70741       -3.68898
C          2.52479       -0.85897       -2.62124
N          3.27582        0.29528       -2.84165
C          1.73961       -1.25958       -1.43486
N          0.78897       -0.19641       -1.06110
C         -0.47604       -0.12266       -1.83524
H          3.52111       -1.54847       -5.62579
H          4.38134        0.77750       -4.64912
H          2.03878       -2.67406       -3.77959
H          2.43023       -1.51315       -0.61465
H          1.23450       -2.23844       -1.56467
C         -1.16869       -1.49060       -1.79481
C         -1.35890        0.94379       -1.16527
C         -0.21246        0.37930       -3.28290
H         -1.03382       -1.94380       -0.78808
H         -2.25638       -1.41918       -1.99340
H         -0.72493       -2.18170       -2.53708
H         -0.91194        1.95961       -1.25763
H         -2.35023        0.96938       -1.66589
H         -1.51549        0.72554       -0.08806
H          0.35653        1.32899       -3.26579
H          0.35426       -0.34707       -3.88943
H         -1.16687        0.55741       -3.82027
Mg         0.27655        5.92483       -5.63102
C         -1.97574        4.99778       -6.87678
C         -0.23516        4.50933       -8.27842
O         -0.65989        5.39714       -7.24601
C         -2.51825        5.80909       -5.71166
C          1.10029        4.89201       -8.89641
H         -2.67584        5.16639       -7.72741
H         -2.00134        3.92539       -6.56849
H         -0.19093        3.45049       -7.93548
H         -0.96020        4.58394       -9.12559
H          1.93442        4.66764       -8.20299
H          1.24205        4.28526       -9.82132
H          1.10914        5.96303       -9.18529
H         -2.52916        6.88955       -5.96062
H         -3.56373        5.48179       -5.51119
H         -1.91562        5.63223       -4.79727
C          0.96161        7.63167       -3.36064
C          1.23775        7.52870       -2.01327
C          1.67866        6.24295       -1.79912
C          1.67640        5.60646       -3.02767
N          1.23713        6.46613       -3.97440
C          2.06454        4.17697       -3.28090
N          3.50235        3.95749       -2.94525
C          4.49311        4.89281       -3.60887
H          1.06801        8.28117       -1.25574
H          0.48290        8.47705       -3.83704
H          1.91687        5.81257       -0.84725
H          1.88557        3.91244       -4.33959
H          1.43088        3.50726       -2.66328
C          4.40710        6.39113       -3.15810
C          5.87358        4.49747       -3.18046
C          4.39549        4.80592       -5.14315
H          4.43329        6.47948       -2.04863
H          5.26342        6.96952       -3.56448
H          3.57079        6.96588       -3.56646
H          6.09911        3.52564       -3.63126
H          6.65584        5.19758       -3.54134
H          5.89096        4.53298       -2.07305
H          4.51732        3.75056       -5.46991
H          3.41947        5.17975       -5.51312
H          5.19257        5.41734       -5.61676
