95
speciation1390.ct
Na         5.84554        1.82610        2.23000
Mg         1.90397        4.36406       -0.96045
C          6.77593        1.78427        5.19768
C          4.41093        1.88135        4.99208
O          5.66665        2.33408        4.48663
C          6.77581        0.25255        5.36547
C          4.09489        2.38561        6.41306
H          7.69045        2.05779        4.63441
H          6.88837        2.27719        6.18723
H          3.60609        2.25710        4.32906
H          4.32631        0.77809        4.94517
H          3.95657        3.48699        6.42015
H          3.15581        1.91056        6.76998
H          4.88264        2.11593        7.14577
H          6.64938       -0.24403        4.38128
H          7.73678       -0.07335        5.81500
H          5.97749       -0.08593        6.06079
H          1.77854        6.46370       -2.69306
C          2.70010        5.02752       -4.02175
C          2.54100        5.65930       -2.62499
C          1.40909        4.34365       -4.48862
H          2.98053        5.81251       -4.76072
H          3.52937        4.29327       -3.99271
H          1.12301        3.57163       -3.75322
H          0.58783        5.08904       -4.55491
C          1.58142        3.67057       -5.85274
H          3.51014        6.13616       -2.36155
H          1.83326        4.42087       -6.63148
H          2.38649        2.90616       -5.81511
H          0.63578        3.16336       -6.14241
C          6.80648        0.31551       -0.54429
C          6.67496        0.21003       -1.91202
C          5.76788        1.17520       -2.29922
C          5.37316        1.82702       -1.14335
N          6.02828        1.30717       -0.07526
C          4.38782        2.97535       -1.05635
N          3.02499        2.72229       -1.59141
C          2.18385        1.65523       -1.00560
H          7.18372       -0.49865       -2.55238
H          7.43587       -0.30382        0.08134
H          5.43596        1.36647       -3.30971
H          4.32370        3.33875       -0.01374
H          4.82091        3.80697       -1.65272
C          2.03902        1.88995        0.48793
C          0.79337        1.76891       -1.66247
C          2.70457        0.23234       -1.27584
H          1.70178        2.91617        0.59476
H          1.30649        1.21087        0.96562
H          3.01387        1.79581        1.00489
H          0.83535        1.52115       -2.74375
H          0.07130        1.07214       -1.18276
H          0.39728        2.79801       -1.56439
H          2.98517        0.11423       -2.34273
H          3.56750       -0.02158       -0.63117
H          1.90688       -0.51212       -1.05450
Na         3.20899        2.13583       -3.64838
Mg         0.16684        6.88258        0.16933
H         -0.90405        8.52512       -1.58900
C          0.24365        9.87801       -0.33169
C         -0.65295        8.65643       -0.51827
C          1.56188        9.71723       -1.09661
H         -0.29053       10.77957       -0.70423
H          0.45871       10.01935        0.75236
H          2.10481        8.83092       -0.71009
H          1.35430        9.56257       -2.17785
C          2.45552       10.94863       -0.94608
H         -1.59182        8.80397        0.04142
H          1.95831       11.84415       -1.37724
H          2.68354       11.13880        0.12423
H          3.41201       10.78390       -1.48700
C         -2.43224        4.16965       -1.69760
C         -2.73117        2.98941       -1.05234
C         -1.95183        2.93581        0.08751
C         -1.20458        4.04383        0.13308
N         -1.46457        4.88240       -0.97014
C         -0.27773        4.39323        1.25354
N          0.91823        5.16781        0.80333
C          1.78618        5.58045        1.96244
H         -3.45423        2.25327       -1.37981
H         -2.87893        4.51011       -2.62011
H         -1.96620        2.14448        0.82822
H         -0.01982        3.45863        1.79347
H         -0.89589        4.97337        1.95927
C          2.31432        4.39174        2.81988
C          3.02690        6.28543        1.39824
C          1.05118        6.57547        2.93258
H          2.96270        3.71557        2.23364
H          2.93820        4.75669        3.65687
H          1.49462        3.81058        3.28297
H          2.72501        7.16883        0.80444
H          3.69961        6.62395        2.21752
H          3.59681        5.59628        0.73922
H          1.45417        7.60483        2.86051
H         -0.03204        6.67225        2.75560
H          1.16982        6.27896        4.00070
