110
speciation2525.ct
Na         1.58446        2.37328       -0.47925
Mg         6.04958       -1.53768       -3.94269
C          4.64029       -2.15923       -6.76604
C          3.43974       -0.66689       -5.36834
O          4.58132       -1.53091       -5.47764
C          4.82949       -1.19943       -7.96735
C          2.07453       -1.30341       -5.79056
H          5.39853       -2.95131       -6.74985
H          3.74053       -2.77818       -6.94669
H          3.35781       -0.37607       -4.31104
H          3.58962        0.27970       -5.93123
H          1.88706       -2.26589       -5.27282
H          1.22724       -0.62415       -5.56796
H          2.01345       -1.48703       -6.88467
H          5.79219       -0.66982       -7.94563
H          4.81680       -1.77173       -8.91683
H          4.00890       -0.45041       -8.03760
H          6.22931        1.34375       -3.56216
C          7.79762        1.37837       -4.99851
C          7.05359        0.65777       -3.83541
C          6.87666        1.45995       -6.20643
H          8.12794        2.40311       -4.71057
H          8.72695        0.84330       -5.27314
H          6.50143        0.44346       -6.36247
H          6.01935        2.13314       -5.98907
C          7.58840        1.91823       -7.48115
H          7.76910        0.64495       -2.98236
H          7.95838        2.95994       -7.38483
H          8.44194        1.24419       -7.71159
H          6.87516        1.86953       -8.33267
C          0.50710        2.74344        2.47977
C          1.02847        2.28125        3.65964
C          2.17655        1.57426        3.35695
C          2.31043        1.65069        1.99490
N          1.29981        2.36232        1.46535
C          3.45014        1.02900        1.16759
N          3.38882        1.34867       -0.29001
C          4.36181        2.36469       -0.76665
H          0.58856        2.41755        4.64245
H         -0.40987        3.31679        2.33752
H          2.82438        1.07603        4.06264
H          3.39261       -0.07646        1.29289
H          4.42007        1.32669        1.61329
C          5.77794        1.79699       -0.74551
C          3.99530        2.67481       -2.22690
C          4.32231        3.67843        0.04687
H          5.74537        0.91776       -1.38977
H          6.51813        2.50591       -1.17086
H          6.12596        1.51216        0.26912
H          2.98003        3.11495       -2.29125
H          4.72058        3.38305       -2.67996
H          3.99844        1.73769       -2.82618
H          3.30251        4.11341        0.04484
H          4.64672        3.52814        1.09669
H          5.01840        4.42054       -0.40374
Na         8.67781       -1.71731        1.95028
Mg         3.58563       -0.27036       -1.52204
C          8.55472       -2.21153       -5.19282
C          7.83246       -4.32207       -4.48607
O          7.66291       -2.88839       -4.32070
C          8.36351       -2.52865       -6.67643
C          9.26853       -4.84120       -4.15507
H          8.35180       -1.16192       -5.06707
H          9.61438       -2.31151       -4.87527
H          7.14829       -4.92255       -3.86855
H          7.51659       -4.65416       -5.48373
H          9.59771       -4.61640       -3.12326
H          9.30560       -5.94203       -4.29283
H         10.05126       -4.41873       -4.81239
H          7.32830       -2.32005       -6.93989
H          8.99915       -1.88187       -7.30441
H          8.61562       -3.57994       -6.92339
H          1.14202        1.28164       -2.30007
C          0.25458       -0.56737       -1.57115
C          1.38869        0.20329       -2.28055
C         -1.11059       -0.43635       -2.28763
H          0.51164       -1.64680       -1.55163
H          0.17414       -0.20303       -0.52668
H         -1.41746        0.62895       -2.36658
H         -1.03297       -0.85559       -3.31605
C         -2.20622       -1.20515       -1.54010
H          1.36589       -0.09800       -3.34256
H         -1.92928       -2.27560       -1.42990
H         -2.36429       -0.76668       -0.53222
H         -3.16659       -1.15161       -2.09906
C          8.67935       -4.09287        0.04293
C          8.12804       -4.67447       -1.08103
C          7.21400       -3.77722       -1.51360
C          7.11852       -2.76506       -0.65511
N          8.06850       -2.91262        0.30881
C          6.10352       -1.66002       -0.82618
N          5.07109       -1.85077       -1.92793
C          4.04730       -2.97164       -1.70690
H          8.39205       -5.60952       -1.54288
H          9.47822       -4.52393        0.62465
H          6.61778       -3.79308       -2.35963
H          6.74830       -0.78723       -1.03617
H          5.61096       -1.48815        0.14203
C          3.43849       -2.90305       -0.28514
C          2.96314       -2.75288       -2.73485
C          4.42721       -4.46517       -1.93910
H          3.02786       -1.90113       -0.06546
H          2.61843       -3.64551       -0.17294
H          4.20077       -3.16899        0.48003
H          3.40114       -2.85673       -3.74264
H          2.11144       -3.45860       -2.63266
H          2.59783       -1.75648       -2.62323
H          4.80369       -4.64350       -2.97178
H          5.09541       -4.87612       -1.16049
H          3.52810       -5.11417       -1.85133
