110
speciation2215.ct
Na         2.09911       -0.27820        1.92950
Mg         2.20153        5.00477       -0.75431
C          0.88495       -1.25984        4.46666
C         -0.88596       -1.30187        2.95699
O          0.29427       -0.59823        3.35165
C          1.41058       -2.68232        4.16456
C         -1.56146       -0.70322        1.73170
H          1.75190       -0.64851        4.78952
H          0.18634       -1.28404        5.33263
H         -0.70518       -2.36311        2.69549
H         -1.62429       -1.24374        3.78811
H         -0.97666       -0.92715        0.81444
H         -2.56200       -1.18087        1.61874
H         -1.70475        0.38936        1.84293
H          2.10386       -2.66991        3.29767
H          1.94748       -3.07887        5.05068
H          0.59625       -3.40955        3.96634
H          0.51649        6.90345        0.17334
C          0.44556        5.81935        2.02793
C          0.59950        5.84704        0.50366
C         -0.86507        6.48754        2.51956
H          0.46645        4.76442        2.36932
H          1.29787        6.35782        2.49364
H         -0.91228        6.38244        3.62524
H         -0.86047        7.57412        2.28263
C         -2.14387        5.87598        1.93117
H         -0.24768        5.27787        0.07700
H         -2.20788        6.06572        0.83966
H         -2.18009        4.78340        2.12180
H         -3.03592        6.34858        2.39746
C          4.78426       -0.94046        0.11890
C          5.80490       -0.44578       -0.66597
C          5.58503        0.90604       -0.79548
C          4.41338        1.18312       -0.11858
N          3.94285        0.04873        0.47669
C          3.79160        2.57152       -0.01702
N          2.65855        2.90945       -0.96335
C          1.51668        1.97387       -0.83773
H          6.62840       -1.00644       -1.08763
H          4.67194       -1.97057        0.42775
H          6.20850        1.60834       -1.33341
H          3.56355        2.76687        1.04507
H          4.57812        3.30671       -0.11997
C          0.92353        2.01508        0.60001
C          0.46448        2.45533       -1.78309
C          1.85962        0.53610       -1.35832
H          0.15215        2.80443        0.70833
H          1.63844        2.29320        1.38347
H          0.55659        1.02549        0.90900
H          0.91285        2.37286       -2.79753
H         -0.44969        1.83153       -1.75623
H          0.19420        3.49317       -1.50760
H          2.78051        0.54906       -1.97392
H          1.94072       -0.21893       -0.56749
H          1.06923        0.09861       -2.00837
Na         1.64304        2.87577       -6.30099
Mg         2.79477        3.58826       -2.99986
C          4.27272        7.00897       -0.53254
C          2.41407        7.89855       -1.68218
O          3.12107        6.71302       -1.30821
C          4.03994        7.87241        0.69371
C          3.05474        8.65926       -2.85250
H          4.64244        6.05280       -0.13617
H          5.07589        7.44643       -1.17018
H          1.41295        7.64900       -1.97673
H          2.18910        8.56658       -0.83880
H          3.16769        8.01364       -3.74970
H          2.39789        9.51532       -3.12637
H          4.04444        9.07307       -2.56983
H          3.19702        7.44162        1.27316
H          4.96264        7.87695        1.30720
H          3.83867        8.92222        0.41096
H          0.62763        4.80878       -4.85507
C          0.13860        5.86970       -3.07386
C          0.63332        4.61123       -3.76456
C         -1.37543        6.19825       -3.08944
H          0.41291        5.75962       -2.02047
H          0.67279        6.68573       -3.59146
H         -1.75321        6.26365       -4.12958
H         -1.94888        5.41230       -2.54811
C         -1.63715        7.54254       -2.38356
H         -0.20712        3.88711       -3.69202
H         -1.32170        7.50567       -1.31626
H         -1.07672        8.35928       -2.88890
H         -2.71935        7.80076       -2.40659
C          5.55574        4.86060       -2.10655
C          6.33001        5.73871       -2.79770
C          5.76290        5.86693       -4.01815
C          4.68161        4.99015       -4.05070
N          4.49110        4.50003       -2.83989
C          3.86732        4.49120       -5.21214
N          3.24371        3.14733       -4.90682
C          4.06327        1.92368       -5.12487
H          7.21742        6.23372       -2.41209
H          5.80055        4.53185       -1.11830
H          6.12753        6.47331       -4.85376
H          4.55276        4.43659       -6.07236
H          3.09085        5.23747       -5.46508
C          5.17934        1.79225       -4.07952
C          3.09192        0.73765       -4.93707
C          4.66853        1.82248       -6.56751
H          4.74078        1.86184       -3.06948
H          5.68494        0.80273       -4.17078
H          5.95811        2.57026       -4.21015
H          2.32949        0.71085       -5.74202
H          3.61401       -0.24404       -4.91859
H          2.51991        0.86244       -4.00898
H          4.16730        1.04793       -7.18791
H          5.76215        1.61879       -6.53876
H          4.56631        2.72959       -7.18059
