83
speciation586.ct
Na         1.38988        1.99880        0.20642
Mg         3.38218        0.08335       -1.63630
C          1.21686        4.80528        0.89154
C          2.75829        4.28596       -0.87061
O          2.14570        3.88195        0.33906
C          0.14697        5.34335       -0.06648
C          3.81388        5.36119       -0.62884
H          0.68258        4.26563        1.70239
H          1.75567        5.63916        1.38989
H          3.28658        3.40004       -1.28256
H          2.02954        4.58430       -1.65048
H          4.56839        4.99228        0.09855
H          4.32453        5.60449       -1.58420
H          3.34834        6.28717       -0.23363
H         -0.39537        4.50651       -0.55371
H         -0.57983        5.95535        0.50885
H          0.59039        6.01068       -0.83413
C         -1.68752        1.12330        0.03920
C         -2.33910       -0.08475       -0.12323
C         -1.36377       -1.05019       -0.25135
C         -0.15894       -0.38759       -0.15380
N         -0.35655        0.92256        0.02455
C          1.20359       -0.99950       -0.21526
N          2.24500        0.03300       -0.00400
C          3.08951       -0.17998        1.20367
H         -3.41111       -0.24241       -0.14567
H         -2.15471        2.08843        0.17548
H         -1.51271       -2.11457       -0.39046
H          1.35031       -1.46942       -1.20949
H          1.23122       -1.80731        0.53966
C          3.84927       -1.53128        1.15325
C          4.11462        0.95785        1.25606
C          2.25320       -0.12032        2.50065
H          4.40665       -1.64355        0.21174
H          4.56563       -1.60749        2.00011
H          3.17737       -2.40764        1.22578
H          3.60865        1.94428        1.29287
H          4.77427        0.87067        2.14574
H          4.75206        0.91947        0.36438
H          1.68410        0.83020        2.55799
H          1.53808       -0.96470        2.57125
H          2.91980       -0.18764        3.38934
Na         4.50838       -1.85765       -4.09790
C          5.24950       -4.64501       -4.43679
C          4.06691       -4.16036       -2.40665
O          4.97137       -3.71404       -3.39926
C          4.03126       -5.29026       -5.11017
C          4.71976       -5.17701       -1.47320
H          5.79487       -4.08378       -5.22475
H          5.95717       -5.42118       -4.07603
H          3.79690       -3.27899       -1.78697
H          3.11065       -4.53258       -2.82518
H          5.63021       -4.73685       -1.01332
H          4.00816       -5.45459       -0.66771
H          4.99811       -6.09729       -2.02666
H          3.33191       -4.51098       -5.47794
H          4.37473       -5.90039       -5.97250
H          3.50543       -5.98072       -4.41858
C          3.29760       -1.09538       -6.96562
C          2.87545        0.08195       -7.55569
C          3.04171        1.07904       -6.61539
C          3.56102        0.46213       -5.49737
N          3.71392       -0.84956       -5.71138
C          3.93029        1.11910       -4.20700
N          4.51935        0.13370       -3.26860
C          5.93859        0.40160       -2.90424
H          2.49449        0.20112       -8.56123
H          3.30592       -2.07309       -7.42735
H          2.82122        2.13204       -6.73664
H          3.02184        1.56149       -3.74857
H          4.61650        1.95111       -4.45124
C          6.11805        1.78224       -2.21991
C          6.38026       -0.68777       -1.92276
C          6.86565        0.32693       -4.13810
H          5.42999        1.89998       -1.36953
H          7.15961        1.90044       -1.84947
H          5.92654        2.63274       -2.90125
H          6.26006       -1.69624       -2.36858
H          7.44303       -0.56070       -1.62508
H          5.77263       -0.62525       -1.01230
H          6.75140       -0.64740       -4.65701
H          6.65686        1.13986       -4.86248
H          7.92849        0.43704       -3.82581
