68
speciation77.ct
Na         2.27227        0.29958        1.04657
Mg         0.68085        1.24446       -0.10873
C          0.31448        1.27414        3.23563
C          1.53208       -0.60813        3.95514
O          1.14487        0.20620        2.84530
C          1.04766        2.30607        4.08535
C          2.33303       -1.81638        3.50174
H         -0.02856        1.76416        2.30515
H         -0.61175        0.90911        3.73835
H          2.19048       -0.04248        4.64566
H          0.63782       -0.99707        4.49481
H          3.23578       -1.49492        2.94162
H          2.65717       -2.40758        4.38803
H          1.70541       -2.47298        2.87874
H          2.00813        2.57146        3.59951
H          0.41719        3.21133        4.18836
H          1.24581        1.90998        5.10309
C          5.29930        1.30325        2.24425
C          5.85447        2.58750        2.16680
C          4.93188        3.38770        1.52360
C          3.88410        2.55934        1.21732
N          4.09140        1.29229        1.63475
C          2.64043        2.96228        0.48281
N          2.37143        2.01277       -0.59777
C          3.22686        2.26026       -1.86907
H          6.81302        2.91470        2.54612
H          5.76224        0.46495        2.72551
H          5.04062        4.43089        1.26728
H          2.65909        4.01946        0.15299
H          1.79518        2.88814        1.19562
C          4.76104        2.13725       -1.60734
C          2.93885        1.30381       -3.04683
C          2.94258        3.64390       -2.49804
H          5.04909        1.14174       -1.21411
H          5.34026        2.27699       -2.54692
H          5.15156        2.92186       -0.94526
H          1.92810        1.43513       -3.48075
H          3.67501        1.43074       -3.87370
H          3.08725        0.28880       -2.79334
H          1.87945        3.70339       -2.81681
H          3.17525        4.49434       -1.83899
H          3.57180        3.78262       -3.40969
Na         2.63474       -3.31104        1.04577
C         -2.13708        0.76904        0.40670
C         -3.05974       -0.23789        0.63021
C         -2.35218       -1.42270        0.63116
C         -1.01931       -1.09754        0.42454
N         -0.90162        0.23845        0.25896
C          0.08904       -2.14562        0.40348
N          1.49662       -1.70160        0.18338
C          1.95264       -1.71404       -1.20518
H         -4.12357       -0.12046        0.76471
H         -2.35925        1.82020        0.35980
H         -2.76492       -2.41211        0.76785
H          0.03926       -2.65734        1.38086
H         -0.20700       -2.91649       -0.33423
C          1.00541       -0.80380       -2.04229
C          3.44915       -1.33218       -1.10144
C          1.94181       -3.10024       -1.88319
H          0.97088        0.22039       -1.65712
H          1.24232       -0.78045       -3.12006
H         -0.04241       -1.16927       -2.01219
H          3.98772       -2.04905       -0.44584
H          3.99609       -1.38081       -2.06499
H          3.57049       -0.34637       -0.62403
H          2.58902       -3.81708       -1.34430
H          0.93169       -3.52253       -2.01305
H          2.35566       -2.97439       -2.91242
