68
speciation9.ct
Na         6.40518        2.04002        2.51617
Mg         2.27541        4.65536       -1.26812
C          6.53410       -0.73169        4.34075
C          6.33618        1.27303        5.57078
O          6.74765        0.67211        4.35844
C          5.06670       -1.16547        4.45860
C          6.64886        2.76242        5.52967
H          6.93169       -1.11673        3.38011
H          7.14301       -1.21568        5.13654
H          5.24148        1.18266        5.72554
H          6.89928        0.83763        6.42691
H          6.08376        3.24792        4.70551
H          6.34634        3.23310        6.48960
H          7.73582        2.92607        5.37467
H          4.46027       -0.71683        3.64589
H          5.01104       -2.27237        4.38230
H          4.63388       -0.89462        5.44350
C          6.91053        4.39314        0.22700
C          6.42885        5.01748       -0.90260
C          5.22904        4.41409       -1.20493
C          5.02376        3.43715       -0.24239
N          6.05534        3.43741        0.63420
C          3.83280        2.50376       -0.15742
N          2.90720        2.76832       -1.27096
C          1.66465        1.98501       -1.37509
H          6.90205        5.82300       -1.44770
H          7.84014        4.62611        0.72910
H          4.58523        4.66512       -2.03705
H          4.19364        1.45538       -0.20676
H          3.33273        2.68271        0.81597
C          0.85213        2.02939       -0.06534
C          0.82578        2.66718       -2.45546
C          1.95021        0.54763       -1.83015
H          0.68186        3.08813        0.23731
H         -0.13993        1.54759       -0.20259
H          1.37891        1.50934        0.75780
H          1.39346        2.77077       -3.40782
H         -0.12396        2.12918       -2.65739
H          0.56767        3.66066       -2.06318
H          2.53884        0.55589       -2.77376
H          2.51294       -0.01451       -1.06032
H          0.99556        0.01298       -2.03238
Na         3.99464        2.51821       -3.09907
C          3.40912        5.67323        2.44507
C          4.40480        6.62993        2.41943
C          4.28477        7.32099        1.23234
C          3.24746        6.81700        0.55978
N          2.64362        5.75465        1.26784
C          2.80068        7.31307       -0.77754
N          1.64361        6.54241       -1.26527
C          1.08270        7.03047       -2.56799
H          5.14381        6.79288        3.19560
H          3.23511        4.96944        3.24525
H          4.90689        8.13992        0.90510
H          3.65003        7.21196       -1.47318
H          2.53568        8.38295       -0.64987
C          2.13278        6.97628       -3.70108
C         -0.10230        6.14318       -2.99941
C          0.52373        8.46455       -2.43422
H          2.54628        5.94686       -3.79027
H          1.67136        7.24864       -4.67576
H          2.96813        7.68217       -3.52708
H         -0.83508        6.01539       -2.17391
H         -0.63323        6.58195       -3.87210
H          0.24513        5.17081       -3.37482
H         -0.24450        8.50569       -1.63306
H          1.31527        9.20734       -2.22327
H          0.04746        8.78337       -3.38865
