83
speciation451.ct
Na         4.03145        4.38630        3.03871
Mg         2.17779        4.55410       -1.13551
C          3.71224        5.90769        5.55533
C          2.25581        4.08958        5.73412
O          2.99677        4.91518        4.83203
C          4.86714        5.34111        6.39106
C          1.34520        3.11808        5.00167
H          4.13540        6.61369        4.81161
H          3.02950        6.52326        6.18663
H          2.91371        3.48598        6.39396
H          1.58222        4.72884        6.35198
H          1.94605        2.35321        4.46939
H          0.70300        2.60024        5.75031
H          0.68884        3.65604        4.28867
H          5.53436        4.73182        5.74829
H          5.44927        6.17373        6.83790
H          4.49850        4.71913        7.23248
C          6.30575        4.60872        0.74206
C          6.73468        4.11214       -0.46740
C          5.79208        3.19495       -0.87244
C          4.81476        3.17959        0.11071
N          5.13797        4.03214        1.11587
C          3.57450        2.33819        0.08301
N          2.80958        2.66706       -1.13836
C          1.52541        2.02475       -1.41067
H          7.63186        4.38731       -1.02245
H          6.84170        5.35285        1.31611
H          5.82746        2.61680       -1.78241
H          3.86165        1.26816        0.07067
H          2.98263        2.56826        0.99103
C          0.56112        2.23693       -0.22724
C          0.93650        2.74093       -2.64633
C          1.73221        0.54720       -1.78067
H          0.46820        3.32873       -0.02124
H         -0.44859        1.83675       -0.44781
H          0.93370        1.74812        0.69500
H          1.62001        2.64823       -3.51853
H         -0.04987        2.31447       -2.92424
H          0.78828        3.82584       -2.45426
H          2.49672        0.47485       -2.58719
H          2.07873       -0.05209       -0.91693
H          0.79118        0.10692       -2.17564
Na         4.11958        2.27547       -3.07420
C          2.55341        7.19691       -1.76026
C          1.25918        6.77872        0.20108
O          1.56187        6.39373       -1.13273
C          3.86393        7.35631       -0.97554
C          0.50184        8.10947        0.27753
H          2.80439        6.69899       -2.71982
H          2.13714        8.18858       -2.03789
H          0.58590        6.00527        0.62758
H          2.15300        6.78419        0.85500
H         -0.46220        8.03912       -0.26973
H          0.28826        8.35069        1.34067
H          1.09997        8.94350       -0.14223
H          4.26621        6.36094       -0.69565
H          4.60944        7.88422       -1.60567
H          3.72027        7.97558       -0.06534
C          6.71172       -1.57332       -2.64166
C          5.42909       -2.06676       -2.68703
C          4.75143       -1.35481       -3.65973
C          5.59015       -0.46013       -4.19359
N          6.86095       -0.53738       -3.57997
C          5.25706        0.45350       -5.34809
N          5.42957        1.88389       -5.01003
C          5.14415        2.82369       -6.13042
H          5.03992       -2.87654       -2.08294
H          7.49991       -1.93538       -1.98867
H          3.72532       -1.52229       -3.96481
H          4.21009        0.25065       -5.65386
H          5.93900        0.16379       -6.16963
C          3.69351        2.69818       -6.65571
C          5.33236        4.25331       -5.59971
C          6.12448        2.60858       -7.30792
H          2.95893        2.87805       -5.84323
H          3.51287        3.44710       -7.45889
H          3.49673        1.70639       -7.11069
H          6.37129        4.40269       -5.23689
H          5.13078        5.00009       -6.40005
H          4.63293        4.44891       -4.75864
H          7.17648        2.70164       -6.96452
H          5.99018        1.61575       -7.78342
H          5.94728        3.36242       -8.10575
