95
speciation1443.ct
Na         0.93190        0.01361        0.07195
Mg         4.05091       -1.65951       -0.66252
C         -1.79207        0.88725       -0.97205
C         -2.16630        0.22719        1.24433
O         -1.38810        0.01361        0.07195
C         -1.54836        2.37911       -0.68287
C         -1.69748       -0.64414        2.39584
H         -1.18935        0.62060       -1.86524
H         -2.85299        0.70673       -1.25413
H         -2.12382        1.26953        1.61830
H         -3.22001       -0.05908        1.02950
H         -0.70480       -0.30652        2.76158
H         -2.42654       -0.56790        3.23256
H         -1.65123       -1.69758        2.07834
H         -0.49188        2.55034       -0.38827
H         -1.77138        2.97365       -1.59284
H         -2.22016        2.76688        0.11017
H          6.18049       -2.26760        1.31313
C          6.43629       -4.07404        0.30936
C          5.48640       -2.96112        0.80773
C          7.36867       -4.60807        1.41581
H          5.85356       -4.93470       -0.06703
H          7.06519       -3.66216       -0.50994
H          8.02213       -3.79090        1.79481
H          6.76851       -5.00282        2.26402
C          8.25565       -5.73497        0.88179
H          4.86226       -3.40045        1.61105
H          7.62838       -6.58206        0.52997
H          8.88007       -5.37234        0.03741
H          8.92781       -6.10599        1.68474
C          6.09916       -0.98103       -2.80357
C          6.32843        0.22460       -3.43436
C          5.46752        1.14506       -2.86234
C          4.75102        0.45611       -1.90362
N          5.13494       -0.82564       -1.88222
C          3.71303        1.01756       -0.94093
N          3.30190        0.01361        0.07195
C          3.88874        0.41225        1.40856
H          7.04163        0.40645       -4.22621
H          6.59315       -1.91954       -3.01767
H          5.38372        2.19369       -3.11123
H          2.79702        1.50010       -1.29138
H          4.22159        1.89941       -0.52727
C          3.36004        1.78549        1.92606
C          3.47752       -0.62105        2.46800
C          5.44367        0.51254        1.34799
H          2.25285        1.79576        1.97122
H          3.76021        1.99055        2.94439
H          3.68225        2.65620        1.32107
H          3.73063       -1.64130        2.16516
H          3.98961       -0.40687        3.43468
H          2.38323       -0.58329        2.65009
H          5.87932       -0.34228        0.83463
H          5.81074        1.38126        0.76717
H          5.88614        0.62214        2.36132
Na         0.96395       -3.15070       -5.61628
Mg         1.47335       -3.04644       -0.02714
H         -0.72508       -3.58701        1.46077
C          0.67676       -3.48106        3.11837
C          0.33632       -3.84053        1.66588
C         -0.23886       -4.22285        4.13182
H          1.73106       -3.75705        3.32710
H          0.56559       -2.38411        3.27751
H         -1.30175       -3.95283        3.95552
H         -0.12447       -5.31848        3.99118
C          0.10737       -3.89055        5.58684
H          0.44121       -4.93851        1.53298
H          1.16363       -4.15126        5.80911
H         -0.05481       -2.81173        5.79439
H         -0.54442       -4.47730        6.27285
C          2.26979       -0.41220       -5.86096
C          2.68303        0.72094       -5.22271
C          2.42240        0.52130       -3.90491
C          1.93461       -0.76927       -3.74913
N          1.78133       -1.30087       -4.97667
C          1.49754       -1.43467       -2.43480
N          2.42276       -2.40218       -1.71876
C          2.72428       -3.68270       -2.41496
H          3.10794        1.62080       -5.65208
H          2.31233       -0.57130       -6.92821
H          2.60240        1.28762       -3.21072
H          0.47793       -1.83843       -2.54897
H          1.37073       -0.58965       -1.76690
C          3.63664       -3.50125       -3.65224
C          3.56130       -4.48695       -1.43408
C          1.44216       -4.47103       -2.75163
H          4.55381       -2.95612       -3.39173
H          3.92497       -4.48925       -4.06356
H          3.16880       -2.99149       -4.48000
H          3.03310       -4.68095       -0.47627
H          3.88628       -5.45571       -1.87620
H          4.45492       -3.88294       -1.25283
H          1.46772       -5.50077       -2.33438
H          0.53056       -4.00816       -2.31947
H          1.30356       -4.56837       -3.84509
