83
speciation580.ct
Na         1.00193        2.04827        0.03755
Mg         2.59153       -3.17661        1.31175
C          0.59623        3.80796       -3.35861
C         -1.11278        2.40192       -2.95051
O          0.15185        2.80759       -2.37958
C          0.97355        3.26405       -4.82284
C         -1.82930        1.38290       -2.18568
H         -0.20507        4.56190       -3.53564
H          1.35604        4.50124       -2.95608
H         -1.82513        3.25747       -3.06184
H         -1.00061        1.89668       -3.92492
H         -2.11497        1.93016       -1.29999
H         -2.75550        1.07380       -2.71459
H         -1.17558        0.50781       -2.05750
H          0.58487        2.26084       -5.09447
H          0.65917        3.96794       -5.61467
H          2.04350        3.16447       -5.05986
C          4.44364        2.28651        2.24157
C          5.54472        3.12539        1.86725
C          5.10790        3.87163        0.83730
C          3.85107        3.46037        0.63166
N          3.44247        2.42151        1.33215
C          2.95879        3.54748       -0.41459
N          2.88693        2.11361       -0.79444
C          3.83449        1.88399       -1.94964
H          6.57608        3.13272        2.25945
H          4.57374        1.59653        3.05012
H          5.69554        4.57126        0.21357
H          2.09850        4.20632       -0.69233
H          2.11618        3.80900        0.28898
C          5.25182        2.53473       -2.00579
C          4.19711        0.50326       -2.01803
C          3.07957        2.20263       -3.16413
H          5.97504        2.07581       -1.28734
H          5.67285        2.28516       -3.01143
H          5.29229        3.62522       -1.91851
H          3.26639        0.07049       -2.05848
H          4.69612        0.14669       -2.93439
H          4.79899        0.29044       -1.10967
H          2.08572        1.70527       -3.07960
H          3.05667        3.30058       -3.18686
H          3.54729        1.80956       -4.08290
Na         2.34412        0.27394        0.90709
C          3.73446       -0.85490        3.49240
C          1.69652        0.04802        4.09091
O          2.72683        0.08836        3.10791
C          4.94710       -0.82011        2.55136
C          0.45322        0.81218        3.66799
H          4.11381       -0.64754        4.53082
H          3.31825       -1.88202        3.46620
H          1.37701       -0.99548        4.32135
H          2.06401        0.53598        5.02307
H         -0.07646        0.25185        2.88265
H         -0.24044        0.89169        4.53450
H          0.70537        1.83443        3.31970
H          4.92063       -1.41685        1.64507
H          5.82711       -0.21181        2.87626
H          4.61644       -0.22511        1.71709
C         -1.77739        0.77142        0.68789
C         -2.78687       -0.16855        0.64712
C         -2.17387       -1.37272        0.52176
C         -0.81716       -1.12466        0.48306
N         -0.55360        0.22121        0.47346
C          0.10502       -2.28363        0.34804
N          1.51535       -1.89906        0.33097
C          2.06557       -1.95607       -1.01715
H         -3.85720        0.00086        0.67162
H         -1.95735        1.83397        0.77251
H         -2.65705       -2.34077        0.42869
H         -0.05099       -2.99556        1.17864
H         -0.22283       -2.83093       -0.55962
C          1.24110       -0.88284       -1.84708
C          3.58357       -1.79254       -0.77377
C          2.03108       -3.28843       -1.79524
H          1.23300        0.10315       -1.32572
H          1.55700       -0.72700       -2.89704
H          0.18333       -1.17023       -1.95818
H          4.62682       -1.97582       -0.44491
H          4.01454       -1.85043       -1.78276
H          3.57715       -0.92777       -0.10631
H          2.75610       -4.02313       -1.38104
H          1.05370       -3.76760       -1.89545
H          2.38359       -3.05516       -2.83344
