80
speciation879.ct
Na         1.39522       -0.47098        0.50283
Mg         3.77618       -3.04536       -4.17561
H          5.10308       -2.22776       -6.41560
C          5.27349       -0.42356       -5.24811
C          4.47509       -1.64506       -5.70914
C          6.47030       -0.82424       -4.38633
H          5.62290        0.15207       -6.13799
H          4.59992        0.22752       -4.65361
H          6.09745       -1.41191       -3.52253
H          7.17778       -1.45174       -4.97178
C          7.20720        0.40673       -3.85644
H          3.59940       -1.27214       -6.28223
H          7.64331        0.99912       -4.68858
H          6.51386        1.05757       -3.28949
H          8.02108        0.09017       -3.17104
C          3.07758       -4.37436       -1.60754
C          2.83267       -4.25388       -0.24882
C          2.99628       -2.94549        0.05454
C          3.34921       -2.29151       -1.11837
N          3.38341       -3.17558       -2.15294
C          3.65565       -0.82121       -1.26190
N          3.44092       -0.07049        0.00098
C          3.55364        1.39263       -0.08874
H          2.56183       -5.04563        0.43575
H          3.02211       -5.30171       -2.16025
H          2.86363       -2.50779        1.04048
H          2.98674       -0.43766       -2.05814
H          4.71126       -0.73741       -1.58871
C          2.34134        1.96170       -0.86354
C          3.55999        1.90091        1.35552
C          4.84552        1.85102       -0.79835
H          1.38205        1.63227       -0.41465
H          2.36153        3.07206       -0.87645
H          2.34987        1.63279       -1.92442
H          4.43480        1.46697        1.88778
H          3.63222        3.00771        1.39825
H          2.64302        1.57021        1.88496
H          5.75186        1.47311       -0.28255
H          4.85229        1.50212       -1.85120
H          4.88825        2.95982       -0.83934
Na         5.11444        2.64194        4.91974
Mg         4.10425       -1.07373        1.58642
H          2.69935       -5.39484       -5.06818
C          3.37836       -4.60395       -6.96438
C          2.77650       -4.40539       -5.56892
C          4.79129       -5.18573       -6.87721
H          2.73466       -5.29572       -7.55672
H          3.39695       -3.62514       -7.48786
H          5.42248       -4.52801       -6.24628
H          4.75369       -6.19416       -6.41029
C          5.43470       -5.29645       -8.25819
H          1.74153       -4.02044       -5.69665
H          4.85271       -5.98115       -8.91149
H          5.49004       -4.29508       -8.73776
H          6.46665       -5.69367       -8.15516
C          4.67559       -3.41673        3.28839
C          5.21842       -3.83724        4.48512
C          5.66741       -2.70931        5.13121
C          5.36893       -1.64441        4.30398
N          4.76758       -2.07697        3.17186
C          5.65233       -0.21081        4.63814
N          4.44167        0.62790        4.63668
C          3.36178        0.36000        5.62200
H          5.27526       -4.85370        4.84949
H          4.23058       -4.06092        2.54347
H          6.14237       -2.66532        6.10278
H          6.17767       -0.12473        5.61301
H          6.34424        0.18532        3.86612
C          3.88077        0.34648        7.07625
C          2.34230        1.50277        5.48095
C          2.62519       -0.96167        5.31922
H          4.37393        1.30916        7.32904
H          3.03712        0.18982        7.78429
H          4.60481       -0.47837        7.24101
H          1.98285        1.57461        4.43216
H          1.46465        1.33588        6.14318
H          2.80098        2.47519        5.76048
H          2.34020       -1.00955        4.24633
H          3.23208       -1.84486        5.58065
H          1.70737       -1.05309        5.93628
