110
speciation2421.ct
Na         0.25723        1.23874       -0.45805
Mg        -4.80927        1.19603        4.39776
C          2.00125        3.17466       -1.93385
C          0.67203        4.26691       -0.27505
O          0.84490        3.13621       -1.10962
C          3.31685        3.41970       -1.18781
C          0.34298        5.53229       -1.07533
H          2.08064        2.18503       -2.42459
H          1.86848        3.90186       -2.76406
H         -0.18661        4.06238        0.37838
H          1.52100        4.42034        0.41905
H         -0.54151        5.36006       -1.72546
H          0.11902        6.36816       -0.38002
H          1.20314        5.83800       -1.70653
H          3.43308        2.68078       -0.36870
H          4.16588        3.31759       -1.89503
H          3.35981        4.45013       -0.77729
H         -6.89209        0.89395        6.07888
C         -7.59786        2.54836        4.86385
C         -6.47615        1.80035        5.59207
C         -8.14382        1.74896        3.67878
H         -8.41751        2.76880        5.58492
H         -7.20111        3.51411        4.48566
H         -7.31686        1.57754        2.95705
H         -8.53711        0.76503        4.01674
C         -9.26582        2.51605        2.97600
H         -6.08584        2.46968        6.38990
H        -10.14430        2.62149        3.64873
H         -8.91846        3.52838        2.67679
H         -9.58279        1.96947        2.06293
C         -4.26418        3.56235        3.06397
C         -3.62904        4.28178        2.09152
C         -2.87029        3.38384        1.37916
C         -3.09592        2.11792        1.91286
N         -3.94232        2.25969        2.97726
C         -2.52117        0.75612        1.45481
N         -1.82290        0.62233        0.10938
C         -2.70888        0.74925       -1.09957
H         -3.70850        5.34889        1.92426
H         -4.93481        3.97017        3.80743
H         -2.25031        3.66400        0.56287
H         -3.33385        0.01159        1.51942
H         -1.86607        0.45630        2.27907
C         -3.25095        2.16472       -1.32175
C         -1.87164        0.43317       -2.32876
C         -3.89769       -0.23118       -1.10199
H         -2.40842        2.88450       -1.37771
H         -3.78201        2.23278       -2.29309
H         -4.00835        2.42285       -0.56280
H         -1.50374       -0.60850       -2.24179
H         -2.46006        0.49919       -3.26811
H         -1.04176        1.16879       -2.40756
H         -3.53769       -1.25740       -1.18728
H         -4.55032       -0.14074       -0.21608
H         -4.53670       -0.06040       -1.99377
Na         5.60358       -1.47807       -2.71345
Mg        -0.60112       -1.13989       -0.21502
C         -0.32013       -3.78515       -1.33869
C         -2.45917       -3.41701       -0.34006
O         -1.09038       -3.06751       -0.36713
C         -0.88381       -3.79761       -2.77378
C         -2.72619       -4.83046        0.19037
H          0.68132       -3.31658       -1.38401
H         -0.14544       -4.82944       -0.99521
H         -2.97906       -2.72776        0.34957
H         -2.93664       -3.31235       -1.33699
H         -2.38043       -4.92043        1.23894
H         -3.82263       -5.02748        0.16025
H         -2.23837       -5.60732       -0.43380
H         -1.06358       -2.76590       -3.13425
H         -0.15915       -4.29099       -3.45650
H         -1.82322       -4.38888       -2.84927
H         -2.96285       -0.57593        4.80688
C         -4.37722       -1.17481        6.34842
C         -3.64816       -0.10284        5.53863
C         -5.33304       -2.02866        5.50548
H         -3.62122       -1.83086        6.83546
H         -4.96845       -0.68169        7.14973
H         -5.80202       -2.77920        6.17915
H         -6.13776       -1.38817        5.08540
C         -4.63573       -2.77182        4.36619
H         -3.02621        0.50210        6.23290
H         -4.23051       -2.05722        3.62000
H         -3.81168       -3.40274        4.76127
H         -5.36980       -3.42323        3.84788
C          3.13490       -0.76960       -4.42611
C          1.79742       -0.45104       -4.40112
C          1.42748       -0.46338       -3.07651
C          2.52933       -0.78110       -2.34313
N          3.58136       -0.97145       -3.17251
C          2.63505       -0.91074       -0.84954
N          1.42731       -0.60219       -0.00262
C          1.75005       -0.77442        1.45230
H          1.16582       -0.23154       -5.25046
H          3.75143       -0.84821       -5.31319
H          0.48653       -0.26559       -2.67434
H          3.45154       -0.20827       -0.59168
H          2.97629       -1.94761       -0.68527
C          2.90439        0.14829        1.92197
C          0.51943       -0.39603        2.25517
C          2.08796       -2.24749        1.80880
H          2.68545        1.20560        1.66044
H          3.02960        0.08175        3.02515
H          3.88440       -0.13978        1.49194
H         -0.32404       -1.05372        1.95740
H          0.68802       -0.53204        3.34641
H          0.28529        0.67280        2.07060
H          1.24682       -2.92140        1.53899
H          3.00934       -2.61578        1.31817
H          2.27436       -2.34680        2.90101
