68
speciation97.ct
Na         1.07900        0.05298        0.03086
Mg         3.63704        3.23969       -1.39960
C         -1.81299        0.76215        1.11390
C         -1.80190       -1.24487       -0.01792
O         -1.24100        0.05298        0.03086
C         -1.21544        2.15566        1.20628
C         -1.19870       -2.03723       -1.16710
H         -2.90551        0.89498        0.93854
H         -1.64328        0.24028        2.08319
H         -1.62679       -1.80335        0.92984
H         -2.89594       -1.17241       -0.21932
H         -0.11441       -2.19911       -0.99481
H         -1.70298       -3.02568       -1.23567
H         -1.34573       -1.49627       -2.12570
H         -1.34909        2.69549        0.24441
H         -1.72850        2.72819        2.00856
H         -0.13731        2.08609        1.45589
C          5.89925        2.41323       -2.85321
C          6.54036        1.29098       -3.30093
C          5.81994        0.20247       -2.81631
C          4.76459        0.72850       -2.07831
N          4.84081        2.06296       -2.10851
C          3.61434       -0.04750       -1.45076
N          3.44900        0.05298        0.03086
C          4.15037       -1.01362        0.80291
H          7.40716        1.26350       -3.94861
H          6.16332        3.43885       -3.07445
H          6.02492       -0.83070       -3.02142
H          3.66218       -1.09023       -1.80210
H          2.69363        0.35981       -1.91871
C          5.67190       -0.97508        0.54286
C          3.91182       -0.78020        2.30130
C          3.60231       -2.42856        0.46334
H          6.08542        0.02456        0.79547
H          6.19668       -1.74354        1.14995
H          5.90423       -1.20053       -0.51563
H          2.82886       -0.83799        2.53939
H          4.43890       -1.55916        2.89891
H          4.29794        0.21261        2.61130
H          2.50561       -2.47172        0.63508
H          3.80367       -2.75264       -0.57557
H          4.08728       -3.19779        1.10215
Na         3.41393        1.83461        0.56951
C          2.33233        5.24420       -3.27740
C          1.23069        6.04836       -3.04330
C          0.76288        5.73354       -1.77500
C          1.59098        4.74316       -1.30984
N          2.54419        4.48135       -2.19889
C          1.55166        3.96342       -0.03381
N          2.93648        3.66036        0.34134
C          3.55994        4.30479        1.48949
H          0.82268        6.78149       -3.72157
H          2.95280        5.22833       -4.16451
H         -0.08538        6.16175       -1.26274
H          0.90095        4.38405        0.75155
H          1.12314        2.98102       -0.33071
C          2.78787        3.93750        2.77585
C          5.00174        3.76304        1.63630
C          3.60597        5.81551        1.25397
H          2.75451        2.82821        2.89770
H          3.27958        4.37034        3.66992
H          1.74427        4.30219        2.75767
H          5.59224        3.94158        0.71201
H          5.51783        4.24815        2.49133
H          5.01231        2.66752        1.83724
H          4.16360        6.02299        0.31412
H          2.57920        6.21797        1.14922
H          4.10710        6.32604        2.09880
