96
speciation1477.ct
Na         2.58601       -1.83714        0.45526
Mg         8.30224        1.81647        1.26261
C          8.33411       -1.43757        1.83759
C          6.39941       -0.48256        0.87583
O          7.67340       -0.20930        1.46755
C          8.57515       -2.43883        0.68276
C          5.44018       -1.33956        1.75980
H          9.29502       -1.22564        2.33783
H          7.76240       -1.95722        2.64125
H          5.92065        0.48715        0.65727
H          6.50202       -0.93933       -0.12558
H          5.26800       -0.94521        2.77763
H          4.46223       -1.39895        1.27442
H          5.78527       -2.38340        1.89062
H          9.29665       -2.01812       -0.04217
H          8.97806       -3.39380        1.08709
H          7.64601       -2.73111        0.14816
H          7.55149        2.07938       -1.33809
C          9.57985        1.48446       -1.78966
C          8.56541        2.23967       -0.91007
C          9.52911        1.93897       -3.26949
H         10.60256        1.64428       -1.38988
H          9.33951        0.40056       -1.75050
H          8.51051        1.75187       -3.67338
H          9.74632        3.02701       -3.36600
C         10.53726        1.17063       -4.13118
H          8.79813        3.32445       -0.97364
H         11.57656        1.45547       -3.86119
H         10.41380        0.07561       -3.99408
H         10.38072        1.40455       -5.20761
C          3.49867        3.60983       -2.52646
C          2.67741        3.16318       -3.55782
C          2.63184        1.79947       -3.45317
C          3.36480        1.48091       -2.31604
N          3.95233        2.58028       -1.75433
C          3.34917        0.09198       -1.76221
N          2.46526        0.02829       -0.57171
C          0.99522        0.23332       -0.76200
H          2.12575        3.74913       -4.28854
H          3.71560        4.65330       -2.35963
H          2.03268        1.13171       -4.06734
H          4.38862       -0.20731       -1.51387
H          2.99994       -0.63811       -2.52612
C          0.39308       -0.68675       -1.86316
C          0.30258       -0.15903        0.55070
C          0.63865        1.73048       -0.96024
H          0.61645       -1.75348       -1.63456
H         -0.71550       -0.58506       -1.88826
H          0.75495       -0.47326       -2.88750
H          0.65770        0.48294        1.38370
H         -0.79786       -0.02930        0.45304
H          0.48728       -1.21945        0.80671
H          1.08294        2.32710       -0.13450
H          0.96234        2.20346       -1.87383
H         -0.45671        1.88359       -0.99832
Mg         5.31084        2.87891       -0.02134
C         10.91393        1.53105        3.20540
C         10.79112        3.49847        1.90860
O         10.19921        2.21715        2.15551
C         10.98741        2.23812        4.58763
C         12.27269        3.51752        1.45372
H         10.50129        0.51787        3.34510
H         11.95091        1.31168        2.87899
H         10.24306        3.98225        1.08463
H         10.67842        4.14444        2.79663
H         12.35768        3.16294        0.40779
H         12.65663        4.56213        1.50532
H         12.97296        2.94419        2.09039
H         10.00271        2.23049        5.08907
H         11.71632        1.70509        5.23840
H         11.37305        3.27833        4.56119
C          9.57947        6.51821        2.97240
C          8.63730        6.68286        3.95455
C          7.47145        6.09268        3.50312
C          7.71087        5.50754        2.32113
N          9.01261        5.82440        1.89267
C          6.73500        4.70002        1.47395
N          6.60556        3.22525        1.75030
C          5.98064        2.93752        3.10793
H          8.79813        7.16063        4.91250
H         10.60978        6.84272        3.02163
H          6.55053        6.07116        4.06443
H          7.04634        4.81926        0.41621
H          5.74841        5.20691        1.50620
C          4.68878        3.75765        3.38761
C          5.54097        1.50495        3.12918
C          6.97408        3.04721        4.30590
H          3.96641        3.63377        2.55346
H          4.19795        3.38981        4.31746
H          4.86498        4.83067        3.54976
H          6.44504        0.87510        3.09432
H          5.02385        1.23687        4.07534
H          4.83325        1.32493        2.29807
H          7.85668        2.39295        4.15399
H          7.36483        4.02331        4.55665
H          6.46745        2.73626        5.24710
