53
speciation932.ct
Na         1.41090        0.34317       -0.38755
C          4.31799        1.18959       -6.08637
C          3.17091        1.26990       -6.88544
C          2.05089        1.29396       -6.10044
C          2.40719        1.22719       -4.78350
N          3.91319        1.12660       -4.75991
C          0.99366        1.27046       -3.50127
N          0.33989        1.32160       -1.90310
C         -1.08662        1.37425       -0.93289
H          3.20072        1.30328       -7.95841
H          5.32128        1.11247       -6.37207
H          1.02497        1.36065       -6.47064
H          0.46372        0.36960       -3.87256
H          0.46133        2.13801       -3.90608
C         -2.27884        0.35463       -1.20688
C         -0.78226        0.89487        0.57667
C         -1.81354        2.72269       -0.50226
H         -1.98771       -0.71737       -1.22285
H         -3.03600        0.35717       -0.35111
H         -2.93286        0.63712       -2.04581
H         -0.05474        1.55282        1.08793
H         -1.65765        0.93326        1.29773
H         -0.59195       -0.18973        0.64393
H         -1.19034        3.41393        0.11268
H         -2.41277        3.23177       -1.26879
H         -2.63957        2.51458        0.25282
Na         0.98031       -0.28603       -0.77268
Li         4.02656        1.01788       -2.77612
C          5.04023        1.77983       -0.29017
C          5.75138        1.18442        0.72895
C          5.29201       -0.10714        0.80402
C          4.24925       -0.22885       -0.08356
N          4.13993        0.90916       -0.79233
C          3.42689       -1.45833       -0.31518
N          2.21195       -1.37495        0.50083
C          2.23648       -1.33470        2.00892
H          6.57646        1.60491        1.28237
H          5.28166        2.73903       -0.72065
H          5.69614       -0.89228        1.43239
H          3.98889       -2.39916       -0.16294
H          3.10409       -1.43187       -1.37681
C          3.17757       -0.30051        2.68375
C          0.86478       -0.95409        2.56779
C          2.53776       -2.74649        2.49283
H          3.11724        0.69739        2.18809
H          2.91890       -0.12857        3.74993
H          4.18705       -0.69327        2.81081
H          0.06228       -1.59191        2.15485
H          0.83351       -1.04849        3.67516
H          0.70799        0.12043        2.40556
H          1.72159       -3.42309        2.15590
H          3.49154       -3.10115        2.05538
H          2.60274       -2.77415        3.59983
