83
speciation293.ct
Na         2.74665        0.33837       -1.55081
Mg         4.04239        2.41370       -2.79034
C         -0.02537        0.23500       -2.95309
C         -0.56525        1.98559       -1.47333
O          0.50104        1.12168       -1.96494
C         -0.55913        0.95782       -4.20560
C         -1.91867        1.34860       -0.98688
H          0.80433       -0.41718       -3.27970
H         -0.78285       -0.47123       -2.54282
H         -0.20476        2.58712       -0.62919
H         -0.82156        2.72370       -2.26172
H         -1.83459        0.84714       -0.00314
H         -2.67876        2.15556       -0.85286
H         -2.40321        0.64955       -1.70043
H          0.21920        1.64267       -4.59880
H         -0.82933        0.21965       -4.98884
H         -1.48314        1.54078       -3.99634
C          6.55443        1.57046       -0.76844
C          7.71980        2.27839       -0.97933
C          7.56442        2.96317       -2.12514
C          6.30476        2.66274       -2.58588
N          5.57803        1.81830       -1.69557
C          6.04751        3.04444       -3.95539
N          5.14235        2.08490       -4.41579
C          5.48603        0.62699       -4.66256
H          8.62002        2.25557       -0.40442
H          6.49658        0.91390        0.03570
H          8.31488        3.55653       -2.64753
H          6.94191        3.05495       -4.62322
H          5.55710        4.04189       -4.00108
C          6.03686       -0.18167       -3.45464
C          4.17892       -0.07950       -5.06751
C          6.51434        0.47172       -5.79486
H          5.28604       -0.27040       -2.64234
H          6.24633       -1.23630       -3.73296
H          7.00457        0.22247       -3.09402
H          3.75929        0.35891       -5.99448
H          4.34644       -1.16697       -5.23856
H          3.42326        0.02303       -4.25619
H          6.15250        0.93210       -6.73398
H          7.48789        0.91989       -5.50524
H          6.69732       -0.61154       -5.98980
Na         4.21993        2.84208       -6.18800
C          1.35011       -2.72077        0.02783
C          0.36271       -0.76997        0.94785
O          1.27667       -1.25646       -0.07798
C         -0.00502       -3.51361        0.18802
C          0.73622       -1.07002        2.42623
H          1.79408       -3.09755       -0.90303
H          2.00106       -3.01705        0.87331
H          0.23396        0.31382        0.84560
H         -0.66961       -1.17121        0.77596
H          1.66505       -0.54256        2.71247
H         -0.08147       -0.71631        3.10219
H          0.84736       -2.15186        2.65870
H         -0.74316       -3.27246       -0.60468
H          0.17841       -4.61431        0.14178
H         -0.50793       -3.36963        1.17492
C          4.40213       -1.20442        0.25844
C          5.13793       -0.82476        1.35112
C          4.84804        0.52283        1.57257
C          3.98441        0.91957        0.55059
N          3.73036       -0.13944       -0.18980
C          3.51847        2.35172        0.21634
N          2.94244        2.74250       -1.16488
C          2.77684        4.24806       -1.19350
H          5.85147       -1.44989        1.87293
H          4.40421       -2.17115       -0.23439
H          5.32821        1.15523        2.30429
H          2.81093        2.59103        1.02858
H          4.43897        2.92815        0.39232
C          4.13077        5.01975       -1.11582
C          2.12661        4.64990       -2.52370
C          1.90239        4.78080       -0.02281
H          4.80906        4.73762       -1.93588
H          3.95499        6.11537       -1.19543
H          4.66845        4.90311       -0.15432
H          1.13305        4.17945       -2.64597
H          1.99649        5.75642       -2.56709
H          2.77986        4.35729       -3.37336
H          0.92967        4.26974        0.03563
H          2.41386        4.67932        0.95837
H          1.71319        5.86966       -0.13329
