96
speciation1134.ct
Na         0.90810       -0.03079        0.02462
Mg         3.46379       -1.33733        1.46662
C         -1.84445       -0.66849       -1.17317
C         -1.86918        1.30725        0.16308
O         -1.41190       -0.03079        0.02462
C         -1.60988        0.11486       -2.47534
C         -3.38033        1.39721        0.40263
H         -1.27010       -1.61550       -1.25089
H         -2.90987       -0.97023       -1.09181
H         -1.37504        1.74197        1.05659
H         -1.55852        1.94751       -0.68666
H         -3.65549        0.85920        1.33405
H         -3.67343        2.46350        0.50724
H         -3.95386        0.97400       -0.44718
H         -0.55862        0.43349       -2.55503
H         -1.85085       -0.52982       -3.34579
H         -2.25953        1.01091       -2.54074
H          2.06867       -3.43385        2.43585
C          2.40518       -3.94938        0.36539
C          1.99399       -2.94668        1.43999
C          1.66210       -5.28541        0.29453
H          2.31212       -3.50062       -0.62459
H          3.46312       -4.16771        0.56265
H          2.22970       -5.91538       -0.42654
H          1.66251       -5.80602        1.27600
C          0.24847       -5.15234       -0.26429
H          0.95219       -2.58544        1.30003
H         -0.41126       -4.61256        0.44265
H          0.27220       -4.61298       -1.23729
H         -0.16410       -6.16714       -0.45101
C          6.10740        2.38501        2.29441
C          5.47904        3.61851        2.20704
C          4.34748        3.42087        1.47912
C          4.31595        2.06094        1.16071
N          5.40171        1.44715        1.61965
C          3.22112        1.43879        0.35864
N          3.27810       -0.03079        0.02462
C          3.56212       -0.08616       -1.44234
H          5.81011        4.56473        2.61771
H          7.03868        2.20005        2.80462
H          3.59226        4.16696        1.20512
H          2.23873        1.69427        0.76279
H          3.18829        2.11751       -0.50179
C          4.98865        0.51933       -1.66330
C          3.43777       -1.51050       -1.87945
C          2.50280        0.61676       -2.36682
H          5.69740        0.11953       -0.90846
H          5.36946        0.36422       -2.69158
H          5.03238        1.61392       -1.49112
H          2.39948       -1.86218       -2.04198
H          3.96407       -1.65074       -2.85309
H          3.78207       -2.07290       -1.01205
H          1.52492        0.11909       -2.23437
H          2.29432        1.69122       -2.23924
H          2.78959        0.49757       -3.43436
Mg         5.58593       -0.44879        1.20457
C          3.11462        0.12049        4.37066
C          1.39309        0.64780        2.87580
O          2.71397        0.04871        3.00628
C          2.09324       -0.45199        5.37942
C          1.27792        2.17897        3.16519
H          4.07092       -0.41700        4.47613
H          3.33725        1.18108        4.63893
H          1.02379        0.50583        1.88697
H          0.60162        0.09435        3.41114
H          1.96777        2.80199        2.56893
H          0.25300        2.53389        2.90848
H          1.44747        2.42960        4.23023
H          1.83917       -1.49459        5.10272
H          2.50727       -0.41134        6.40362
H          1.15682        0.14981        5.43154
C          5.07054       -6.26651        2.64132
C          6.43447       -6.37098        2.81135
C          6.95093       -5.08484        2.83176
C          5.93554       -4.23643        2.63079
N          4.70531       -4.91644        2.56336
C          6.07283       -2.76623        2.37649
N          5.55828       -2.38434        1.04082
C          6.39517       -3.07017       -0.12545
H          6.99240       -7.29672        2.85096
H          4.37895       -7.09012        2.54141
H          8.00154       -4.82078        2.86196
H          7.13442       -2.45018        2.47199
H          5.50800       -2.21031        3.15063
C          6.33805       -4.64005       -0.23478
C          5.98804       -2.74266       -1.57583
C          7.87871       -2.62957       -0.06317
H          5.30003       -5.02367       -0.32143
H          6.86592       -5.00211       -1.15021
H          6.89434       -5.20624        0.49616
H          6.03211       -1.69087       -1.80005
H          6.68178       -3.16075       -2.33666
H          5.07810       -3.30409       -1.87580
H          7.94565       -1.52796        0.05286
H          8.42834       -3.14163        0.74784
H          8.42700       -2.89044       -1.00092
