66
speciation237.ct
Na         0.48405        0.72425       -0.55695
Mg         3.34607       -0.31744       -1.72432
H          1.55376        1.57006       -2.53064
C          2.82653        1.55920       -4.26875
C          2.63855        1.49249       -2.75910
C          2.16445        0.36748       -4.94914
H          2.38066        2.50732       -4.65198
H          3.91380        1.56723       -4.49208
H          2.62088       -0.56567       -4.55430
H          1.07357        0.36002       -4.72866
C          2.36556        0.42246       -6.46022
H          3.11706        2.40962       -2.36543
H          1.86745        1.32064       -6.88565
H          3.44911        0.45754       -6.70421
H          1.92418       -0.48387       -6.92335
C         -1.55900       -1.61677        0.18084
C         -1.31553       -2.86672        0.72442
C          0.05048       -2.95508        0.91987
C          0.57287       -1.75160        0.49588
N         -0.40069       -0.95480        0.04578
C          2.04588       -1.38061        0.52968
N          2.34844       -0.01450        0.01329
C          2.82279        0.94162        1.05108
H         -2.04960       -3.62623        0.95240
H         -2.52377       -1.22369       -0.09761
H          0.59332       -3.79668        1.33156
H          2.55828       -2.10314       -0.09813
H          2.41904       -1.54930        1.55670
C          4.19003        0.52022        1.63759
C          3.00095        2.32469        0.41161
C          1.76998        1.08453        2.17849
H          4.94575        0.43449        0.82769
H          4.54490        1.28015        2.36710
H          4.14844       -0.44384        2.17911
H          2.05313        2.66880       -0.05658
H          3.30281        3.07739        1.17195
H          3.80869        2.28962       -0.34346
H          0.79444        1.41100        1.75799
H          1.60388        0.13548        2.72580
H          2.09470        1.83927        2.92580
Mg         4.88914       -1.72760       -4.25206
C          7.38194       -0.86136       -5.78764
C          8.42366       -0.09567       -5.29330
C          8.11842        0.19070       -3.97562
C          6.91315       -0.42379       -3.72042
N          6.46798       -1.05285       -4.81840
C          6.13921       -0.41675       -2.40074
N          4.97939       -1.35907       -2.39828
C          5.27351       -2.69546       -1.78322
H          9.30482        0.22267       -5.83449
H          7.29616       -1.24750       -6.79421
H          8.71515        0.76889       -3.28086
H          5.76829        0.61546       -2.23820
H          6.84251       -0.62717       -1.57561
C          5.51267       -2.56291       -0.25907
C          4.08663       -3.64843       -2.05108
C          6.51022       -3.38149       -2.41795
H          4.70176       -2.00184        0.22819
H          5.59157       -3.56209        0.22035
H          6.45850       -2.03476       -0.02619
H          3.95822       -3.81551       -3.14100
H          4.26692       -4.63916       -1.57353
H          3.12513       -3.27180       -1.68352
H          6.35661       -3.54189       -3.50637
H          7.43914       -2.79519       -2.27335
H          6.68053       -4.37790       -1.95084
