110
speciation2234.ct
Na        -1.65426       -4.01030        2.04944
Mg         1.88027        1.70179        4.42120
C         -4.55416       -4.74616        2.76598
C         -3.59772       -6.21250        1.14262
O         -3.75781       -4.87583        1.59300
C         -4.15636       -5.63691        3.95222
C         -4.89608       -6.81451        0.59792
H         -4.45165       -3.69276        3.10175
H         -5.62925       -4.87916        2.52323
H         -2.87206       -6.19725        0.30226
H         -3.14413       -6.86441        1.91618
H         -5.27565       -6.20519       -0.24893
H         -4.69984       -7.84633        0.23661
H         -5.67521       -6.87529        1.38497
H         -3.09278       -5.49341        4.20555
H         -4.76347       -5.36279        4.83968
H         -4.34688       -6.70937        3.74394
H          3.59036        3.82222        5.00159
C          4.68487        3.17451        3.26008
C          3.83098        2.87063        4.48494
C          3.88468        3.99795        2.27485
H          5.60287        3.72504        3.57701
H          5.01250        2.22497        2.78355
H          2.99510        3.40131        1.98876
H          3.56692        4.94897        2.75683
C          4.68781        4.32070        1.02436
H          4.54254        2.31742        5.13265
H          5.52706        5.00800        1.26482
H          5.09098        3.39035        0.57063
H          4.01401        4.81349        0.29456
C          3.84097       -0.27251        3.47763
C          4.34679       -1.35720        2.80056
C          3.29081       -1.94894        2.17512
C          2.15352       -1.21821        2.50987
N          2.50528       -0.12015        3.28793
C          0.79735       -1.72571        2.04549
N          0.49463       -3.12613        2.51573
C          0.46453       -3.30754        4.00343
H          5.37407       -1.69540        2.77963
H          4.45476        0.37378        4.07453
H          3.33296       -2.83918        1.57150
H          0.80119       -1.73987        0.93494
H         -0.00784       -1.03200        2.31811
C         -0.56265       -2.33477        4.64321
C         -0.01243       -4.72441        4.35501
C          1.88429       -3.25151        4.63023
H         -1.58395       -2.55226        4.26402
H         -0.57002       -2.41948        5.74918
H         -0.39081       -1.28026        4.39201
H          0.68370       -5.49554        3.96693
H         -0.06338       -4.83363        5.46592
H         -1.01829       -4.91765        3.96419
H          2.56779       -3.94795        4.10121
H          2.36829       -2.28304        4.61867
H          1.87117       -3.54711        5.69876
Na         3.38048        1.80988        6.72419
Mg         1.82759       -4.44162        1.91847
C          0.26249        3.99671        3.25032
C         -0.76923        1.86058        3.23988
O          0.45995        2.58246        3.31289
C         -0.49716        4.62450        4.41837
C         -1.52057        2.00731        1.89746
H          1.24853        4.48979        3.19362
H         -0.22389        4.27961        2.29555
H         -0.52859        0.79461        3.34964
H         -1.44251        2.09141        4.08735
H         -0.88050        1.69601        1.04540
H         -2.42989        1.36850        1.90601
H         -1.88102        3.04239        1.72228
H          0.14053        4.57787        5.30109
H         -0.66501        5.70224        4.21890
H         -1.49229        4.17246        4.60553
H          4.31735       -5.12347        1.55115
C          3.33666       -6.41452        0.13920
C          3.38558       -5.72468        1.49768
C          2.05716       -7.23160       -0.04111
H          3.39514       -5.64383       -0.66041
H          4.22436       -7.08061        0.05473
H          1.96582       -7.98314        0.77297
H          1.17854       -6.55135       -0.00249
C          2.07251       -7.96293       -1.38280
H          3.40328       -6.47456        2.31709
H          2.17543       -7.23971       -2.21987
H          2.92143       -8.67935       -1.41836
H          1.12681       -8.52913       -1.51480
C          4.10132        4.39030        8.40366
C          3.24487        5.26775        9.04509
C          1.96084        4.82963        8.79737
C          2.08393        3.70447        8.00357
N          3.37679        3.43953        7.78721
C          0.94405        2.84010        7.47483
N          1.35779        1.68281        6.59768
C          1.26949        0.38650        7.31225
H          3.53941        6.12597        9.63533
H          5.17751        4.43359        8.39103
H          1.04398        5.27375        9.16149
H          0.39234        2.51643        8.37664
H          0.19993        3.44534        6.95770
C         -0.18780        0.02204        7.70146
C          1.78784       -0.62272        6.34545
C          2.17423        0.32139        8.57350
H         -0.87012        0.08309        6.82902
H         -0.22411       -1.01343        8.10755
H         -0.59409        0.66324        8.50983
H          2.84662       -0.42008        6.08598
H          1.69521       -1.63384        6.78235
H          1.20505       -0.51553        5.42587
H          3.24656        0.46905        8.33504
H          1.88675        1.06928        9.33840
H          2.10625       -0.68582        9.03868
