80
speciation907.ct
Na        12.29358        3.08486       -5.32001
Mg         7.09755       -3.44893       -1.56725
H          7.30096       -4.40083       -4.00282
C          7.60207       -6.32882       -3.15799
C          7.78817       -4.80938       -3.09541
C          6.12707       -6.74387       -3.12068
H          8.04802       -6.68493       -4.11608
H          8.14823       -6.80611       -2.31843
H          5.68334       -6.42804       -2.15307
H          5.56843       -6.25585       -3.94989
C          5.98398       -8.26031       -3.27203
H          8.87459       -4.59477       -3.16753
H          6.37741       -8.59138       -4.25822
H          6.54039       -8.78691       -2.46785
H          4.91302       -8.54747       -3.20934
C         13.50980        5.40120       -3.49706
C         13.72499        5.44696       -2.13273
C         13.31026        4.22196       -1.63007
C         12.87138        3.49162       -2.70882
N         12.98914        4.20817       -3.83732
C         12.33934        2.06217       -2.65580
N         12.06327        1.48803       -4.00141
C         13.03148        0.49712       -4.53008
H         14.12820        6.27330       -1.56590
H         13.71703        6.19670       -4.20048
H         13.33360        3.91367       -0.59199
H         11.40092        2.06757       -2.06431
H         13.07287        1.45287       -2.09410
C         13.09888       -0.76913       -3.64907
C         12.54464        0.08226       -5.92884
C         14.43701        1.12492       -4.67024
H         12.09034       -1.21745       -3.53525
H         13.77059       -1.52246       -4.11650
H         13.51103       -0.56649       -2.64212
H         12.49340        0.96132       -6.60605
H         13.23260       -0.66451       -6.38306
H         11.53016       -0.36793       -5.86893
H         14.40459        2.01211       -5.33890
H         14.84180        1.44755       -3.68926
H         15.14944        0.39488       -5.11138
Na         9.77464        1.03722       -4.42072
Mg         8.88092       -0.54953       -2.27804
H          6.97381       -5.55013        0.23885
C          6.32367       -4.08506        1.68426
C          7.17756       -4.47837        0.44991
C          4.81931       -4.26054        1.43505
H          6.60996       -4.72875        2.54836
H          6.53598       -3.03605        1.97647
H          4.51443       -3.64125        0.57679
H          4.60009       -5.32602        1.20466
C          3.97530       -3.83285        2.63846
H          8.24460       -4.40342        0.75465
H          4.19801       -4.46184        3.52635
H          4.16624       -2.76699        2.88867
H          2.89770       -3.94362        2.39126
C          6.80083        1.49484       -5.56083
C          5.50829        1.08169       -5.77035
C          5.38786       -0.14137       -5.16093
C          6.61897       -0.42514       -4.58886
N          7.48601        0.58640       -4.84003
C          6.88410       -1.69686       -3.82009
N          7.18752       -1.52240       -2.38224
C          6.20238       -0.81384       -1.53128
H          4.73347        1.60128       -6.32058
H          7.22221        2.42256       -5.92374
H          4.50815       -0.76972       -5.13016
H          6.02177       -2.37743       -3.91627
H          7.75221       -2.18871       -4.30343
C          4.88268       -1.60835       -1.51189
C          6.81327       -0.77833       -0.12587
C          5.94047        0.65893       -1.94571
H          4.40138       -1.59276       -2.51372
H          4.16059       -1.19083       -0.78205
H          5.08724       -2.67002       -1.27593
H          7.75779       -0.19251       -0.13403
H          6.11171       -0.31058        0.59878
H          7.04996       -1.79736        0.21458
H          6.84368        1.12380       -2.38837
H          5.08292        0.74582       -2.64643
H          5.66988        1.28976       -1.07138
