96
speciation992.ct
Na        -0.32500       -6.03819        0.43690
Mg        -4.10632       -0.51653        0.44285
C         -0.45729       -5.36291        3.42399
C         -2.10675       -6.92213        2.76816
O         -1.19327       -5.92907        2.34893
C          0.40887       -6.35846        4.20737
C         -2.85264       -7.45170        1.55768
H          0.22011       -4.60198        2.98486
H         -1.13361       -4.80605        4.11197
H         -1.59409       -7.78777        3.23949
H         -2.86038       -6.48261        3.46004
H         -2.13691       -7.91158        0.85754
H         -3.58592       -8.22382        1.87172
H         -3.37799       -6.62769        1.03396
H          1.05618       -6.93407        3.51431
H          1.05050       -5.80425        4.92586
H         -0.21551       -7.05524        4.80518
H         -3.76730        1.12694        2.59012
C         -1.74316        0.66637        2.26660
C         -3.20977        0.23449        2.27065
C         -1.49292        1.75868        1.22647
H         -1.47542        1.04462        3.27917
H         -1.09115       -0.19479        2.05284
H         -1.76911        1.37593        0.22060
H         -2.11657        2.65035        1.45689
C         -0.02289        2.17146        1.21226
H         -3.35756       -0.54742        3.04540
H          0.27214        2.59255        2.19746
H          0.62125        1.29522        0.98372
H          0.13889        2.94393        0.43184
C          1.42244       -3.95417       -1.14737
C          1.61507       -2.64716       -1.53274
C          0.56351       -1.92817       -1.01112
C         -0.26456       -2.83745       -0.37795
N          0.28410       -4.08058       -0.42358
C         -1.60659       -2.50501        0.25009
N         -2.37737       -1.45530       -0.48854
C         -2.82934       -1.77883       -1.86947
H          2.43187       -2.25786       -2.12464
H          2.07904       -4.78217       -1.39459
H          0.39568       -0.86623       -1.12783
H         -2.20146       -3.42637        0.41690
H         -1.38302       -2.13018        1.26032
C         -3.75333       -3.00916       -1.83294
C         -3.53844       -0.51187       -2.37378
C         -1.71614       -2.06201       -2.91556
H         -4.50799       -2.92409       -1.03169
H         -4.24423       -3.16448       -2.81668
H         -3.16111       -3.92422       -1.61145
H         -2.80198        0.31751       -2.46651
H         -4.00782       -0.67805       -3.36638
H         -4.28851       -0.14462       -1.66077
H         -1.01021       -1.20913       -3.00413
H         -1.16343       -3.00081       -2.72128
H         -2.16698       -2.20323       -3.92246
Mg        -9.57269       -2.90384       -0.53368
C          0.28917       -7.62775       -1.90497
C          0.13850       -9.04240        0.01191
O          0.46811       -7.75426       -0.49780
C         -1.08685       -8.04877       -2.44817
C          1.17556      -10.10393       -0.36938
H          0.40655       -6.55147       -2.14310
H          1.10653       -8.14212       -2.45224
H          0.12212       -8.98480        1.12063
H         -0.87271       -9.37836       -0.28383
H          2.16371       -9.85460        0.07004
H          0.85084      -11.09371        0.01741
H          1.27739      -10.19438       -1.47024
H         -1.89711       -7.51906       -1.90468
H         -1.14950       -7.79371       -3.52648
H         -1.23988       -9.14606       -2.38059
C         -9.84614       -0.77503       -2.56518
C         -9.15574        0.26091       -3.15859
C         -7.89527        0.27243       -2.60396
C         -7.87260       -0.75040       -1.68234
N         -9.06324       -1.39696       -1.66711
C         -6.73264       -1.11827       -0.77465
N         -6.23225       -0.01341        0.08428
C         -7.23491        0.49075        1.10955
H         -9.53606        0.93713       -3.91427
H        -10.87137       -1.05511       -2.76706
H         -7.08992        0.95862       -2.82905
H         -5.94578       -1.41980       -1.46863
H         -6.96622       -2.01290       -0.16314
C         -7.60079       -0.62268        2.10958
C         -6.65725        1.68699        1.88528
C         -8.55378        1.05728        0.49727
H         -6.68397       -1.04431        2.56939
H         -8.26305       -0.23305        2.91337
H         -8.16201       -1.43888        1.60743
H         -6.41286        2.52894        1.20214
H         -7.40262        2.06579        2.62444
H         -5.78690        1.40220        2.47247
H         -8.34023        1.83465       -0.26823
H         -9.21940        0.28681        0.08448
H         -9.19170        1.52566        1.27870
