95
speciation1678.ct
Na         0.84266        1.60703       -2.31903
Mg         8.26146        2.09190       -2.94427
C          8.58757        1.87746       -5.80267
C          7.19736        3.67945       -5.22483
O          7.74800        2.44102       -4.80349
C          9.88387        2.65962       -6.04087
C          6.13830        4.13291       -4.24102
H          8.85523        0.85184       -5.47633
H          8.03334        1.74601       -6.76182
H          7.97290        4.46770       -5.29303
H          6.68931        3.57831       -6.21235
H          6.56103        4.17187       -3.22305
H          5.75985        5.13651       -4.52708
H          5.29875        3.42509       -4.24262
H         10.44793        2.77175       -5.09337
H         10.52072        2.11307       -6.76841
H          9.68206        3.66207       -6.47658
H         10.04686        4.21523       -2.03376
C          8.59575        5.78621       -2.38477
C          9.14618        4.33773       -2.66815
C          8.17591        6.04504       -0.92816
H          9.39890        6.52421       -2.62359
H          7.75231        6.02633       -3.06846
H          7.39469        5.32648       -0.63905
H          9.06100        5.92006       -0.27128
C          7.62310        7.46787       -0.71840
H          9.54337        4.43016       -3.69628
H          8.37853        8.24169       -0.98517
H          6.70943        7.63001       -1.33118
H          7.34959        7.60501        0.34693
C          1.94801        4.36827       -1.14323
C          3.25041        4.80587       -0.97887
C          4.06024        3.79112       -1.45771
C          3.23876        2.79439       -1.91727
N          1.95315        3.15019       -1.65666
C          3.67587        1.49405       -2.52537
N          2.56037        0.60677       -2.94824
C          2.35224        0.51899       -4.42896
H          3.58279        5.76408       -0.56883
H          1.06367        4.93130       -0.85785
H          5.13795        3.80012       -1.48642
H          4.27300        0.95772       -1.76117
H          4.36318        1.70665       -3.35407
C          3.55156       -0.14071       -5.15233
C          1.10890       -0.34430       -4.68875
C          2.08779        1.92069       -5.04360
H          3.74890       -1.15243       -4.74038
H          3.32997       -0.24579       -6.23758
H          4.48077        0.45685       -5.08675
H          0.21593        0.09272       -4.19321
H          0.89602       -0.40765       -5.77909
H          1.26000       -1.37536       -4.30550
H          1.20122        2.39880       -4.57664
H          2.95383        2.60279       -4.92503
H          1.88961        1.83595       -6.13454
Na         6.48931        0.55880       -0.34137
Mg         3.03530       -1.04459       -1.89224
H          0.49121       -0.96851       -0.53747
C          0.66773       -3.08580       -0.10075
C          1.03498       -1.84238       -0.96375
C          0.96432       -3.09016        1.41585
H         -0.44327       -3.22730       -0.15737
H          1.12896       -3.97872       -0.56180
H          0.31533       -2.37465        1.97143
H          0.67463       -4.10524        1.79117
C          2.41354       -2.80783        1.80478
H          0.54717       -2.04976       -1.94139
H          2.69307       -3.29894        2.76746
H          3.02653       -2.14048        1.17537
H          2.34678       -1.81648        2.23655
C          4.69881       -3.29440       -1.84744
C          5.85249       -4.01521       -2.03590
C          6.80721       -3.11568       -2.43134
C          6.22225       -1.85984       -2.42876
N          4.88387       -1.98555       -2.10758
C          6.98939       -0.60636       -2.90623
N          7.83502        0.14801       -1.93070
C          9.04600       -0.50080       -1.28573
H          5.97938       -5.08451       -1.92360
H          3.74852       -3.71819       -1.55787
H          7.82291       -3.36532       -2.70652
H          7.57928       -0.86144       -3.81376
H          6.22029        0.10671       -3.25508
C         10.06622       -1.06751       -2.31649
C          9.67775        0.59791       -0.41003
C          8.72786       -1.65277       -0.28810
H         10.10879       -0.49002       -3.25944
H         11.08859       -1.11515       -1.87531
H          9.82542       -2.12440       -2.58269
H          8.93630        0.92041        0.35725
H         10.56533        0.21731        0.14711
H          9.97925        1.48508       -0.99783
H          7.95412       -1.37598        0.45371
H          8.44222       -2.59429       -0.76010
H          9.65491       -1.94206        0.25975
