95
speciation1829.ct
Na         1.11254        0.17522        0.82188
Mg         2.30250        4.60553       -0.77012
C          4.27367        5.72491       -2.51088
C          2.42073        7.20538       -2.22557
O          2.88354        5.85573       -2.20321
C          5.21968        6.59644       -1.66899
C          2.47146        7.84199       -3.63122
H          4.55677        4.68535       -2.31571
H          4.45963        5.86305       -3.59702
H          1.36352        7.22073       -1.91744
H          2.96662        7.83313       -1.49720
H          1.79174        7.30898       -4.33006
H          2.14993        8.90451       -3.57122
H          3.49905        7.84221       -4.05705
H          5.01591        6.44718       -0.59143
H          6.26878        6.30438       -1.87726
H          5.11902        7.66883       -1.92930
H          6.39353        2.66915       -2.24377
C          6.70747        1.58206       -4.08396
C          5.86521        1.92357       -2.87862
C          6.89037        2.81686       -4.95980
H          7.69887        1.20275       -3.73356
H          6.19105        0.77897       -4.64410
H          5.88854        3.18753       -5.25656
H          7.41247        3.61322       -4.39014
C          7.68299        2.46002       -6.20595
H          5.72716        0.99254       -2.30291
H          8.69517        2.10647       -5.91957
H          7.15733        1.65439       -6.76493
H          7.76787        3.35310       -6.84801
C         -1.35765        0.68589        2.15716
C         -0.56540        0.86892        3.25920
C          0.11418        2.05195        3.07210
C         -0.32416        2.54458        1.84278
N         -0.86779        1.44792        1.22293
C         -0.32025        4.05005        1.21825
N          0.91852        4.93561        0.95445
C          1.57106        5.61978        2.10898
H         -0.52768        0.25173        4.13134
H         -2.01499       -0.16086        2.00065
H          0.68346        2.43536        3.87231
H         -1.06651        4.64662        1.77274
H         -0.82275        3.96030        0.22255
C          2.20281        4.61351        3.03423
C          2.68859        6.53589        1.57512
C          0.57276        6.49506        2.91586
H          2.77224        3.84361        2.48014
H          2.86100        5.09358        3.78577
H          1.39411        4.21273        3.61855
H          2.28897        7.33694        0.91853
H          3.21152        7.03442        2.42649
H          3.43759        5.94660        1.01148
H          0.18463        7.34572        2.31378
H         -0.28440        5.90521        3.28757
H          1.07518        6.90095        3.81663
Na         0.08944        6.68745       -0.00983
Mg         3.97172        2.69641       -3.31112
H          2.09667        3.57159       -5.35617
C          2.71013        1.78325       -6.33550
C          3.03704        2.97523       -5.42117
C          1.81295        0.71898       -5.68239
H          2.21501        2.16564       -7.25773
H          3.66910        1.30606       -6.61578
H          2.34140        0.33907       -4.79187
H          0.82663        1.13335       -5.37128
C          1.57803       -0.46817       -6.62441
H          3.72470        3.65470       -5.95367
H          0.91027       -0.18524       -7.46629
H          2.54276       -0.83341       -7.03783
H          1.10533       -1.30618       -6.06751
C          4.18743       -1.05150        0.71823
C          5.53208       -0.84637        0.51435
C          5.67919        0.49256        0.19387
C          4.41069        1.03273        0.17605
N          3.48599        0.09144        0.55898
C          4.16235        2.50378       -0.16839
N          3.32216        2.82586       -1.37472
C          2.09251        2.06526       -1.58404
H          6.33601       -1.56311        0.57772
H          3.74917       -2.00246        0.97639
H          6.60982        0.99879       -0.02900
H          3.71106        2.97527        0.71843
H          5.13823        3.02904       -0.28859
C          1.34091        2.13092       -0.37715
C          1.22233        2.83186       -2.58998
C          2.27667        0.59882       -2.06329
H          1.22947        3.14872       -0.23089
H          0.38204        1.64063       -0.59195
H          1.88398        1.89541        0.54955
H          1.76347        2.92799       -3.47642
H          0.26437        2.28683       -2.79734
H          0.94783        3.85392       -2.25258
H          3.19695        0.45697       -2.66037
H          2.23341       -0.14763       -1.26158
H          1.38324        0.26823       -2.62926
