96
speciation1374.ct
Na         2.24100        0.07510        1.75067
Mg         0.77569       -0.81660       -0.50277
C          2.39763        0.90509        4.48789
C          4.57377        0.55425        3.71952
O          3.20776        0.14234        3.62015
C          0.93226        0.60581        4.21689
C          5.24326       -0.06223        4.95096
H          2.57400        0.57850        5.53035
H          2.57615        2.00042        4.38109
H          5.14335        0.22311        2.82514
H          4.68985        1.66100        3.74438
H          5.29915       -1.16632        4.85254
H          6.26498        0.35076        5.07711
H          4.68151        0.18147        5.87297
H          0.75486       -0.47918        4.36123
H          0.29938        1.16366        4.93716
H          0.63759        0.89816        3.18713
H         -0.61056       -2.76756       -2.47248
C         -0.46081       -4.22537       -0.86315
C          0.14345       -2.98064       -1.69090
C         -0.67771       -5.56252       -1.62300
H          0.10179       -4.53515        0.03840
H         -1.43107       -3.93314       -0.44464
H         -1.40607       -5.40765       -2.44315
H          0.26807       -5.96790       -2.05463
C         -1.23303       -6.62883       -0.65263
H          1.04292       -3.30916       -2.25946
H         -0.46935       -6.90550        0.11052
H         -2.12372       -6.23146       -0.12194
H         -1.52935       -7.55953       -1.18351
C         -2.09502       -1.15797        0.42934
C         -3.00225       -0.14883        0.66662
C         -2.31854        1.05981        0.49628
C         -1.07248        0.71435        0.12510
N         -0.92042       -0.60276        0.08386
C          0.00082        1.66818       -0.34627
N          1.31253        1.30701        0.20138
C          2.33248        2.44643        0.13204
H         -4.05510       -0.26070        0.90501
H         -2.32027       -2.21327        0.44224
H         -2.74858        2.03755        0.55547
H         -0.31740        2.69805       -0.15429
H          0.09506        1.50845       -1.44443
C          1.93256        3.80219        0.80561
C          3.56643        2.08028        0.94545
C          2.75839        2.71099       -1.31732
H          1.87689        3.72969        1.91859
H          2.75328        4.54535        0.62243
H          1.01011        4.26796        0.43709
H          3.85446        1.10210        0.67754
H          4.41897        2.78924        0.82935
H          3.31588        2.02725        2.01289
H          3.26744        1.85136       -1.70209
H          1.90785        2.89445       -1.99375
H          3.50886        3.52794       -1.38941
Mg         3.79472        0.74901       -4.13319
C          1.45943        1.63761       -5.96898
C          3.01190        0.01903       -6.68031
O          2.78820        1.10734       -5.81785
C          0.32650        0.67913       -5.55745
C          4.44299       -0.46672       -6.48939
H          1.39135        2.55019       -5.34297
H          1.25868        2.01498       -7.00633
H          2.32987       -0.82157       -6.43046
H          2.89700        0.31874       -7.74698
H          4.58940       -0.84190       -5.45328
H          4.65693       -1.29456       -7.19623
H          5.16144        0.35996       -6.67644
H          0.64026        0.04427       -4.70663
H         -0.57002        1.26445       -5.25389
H          0.00930        0.03183       -6.40732
C          6.01867        0.90919       -1.98729
C          6.35972        0.52748       -0.71222
C          5.37107       -0.29985       -0.28116
C          4.41319       -0.37963       -1.26617
N          4.82876        0.33622       -2.33634
C          2.99729       -0.95154       -1.13291
N          2.43927       -1.34687        0.22244
C          2.70208       -2.62591        0.93291
H          7.18893        0.84455       -0.09385
H          6.59352        1.63074       -2.55950
H          5.33298       -0.65361        0.71639
H          2.66846       -1.60236       -1.96534
H          2.39454       -0.06765       -1.41495
C          4.03955       -2.59370        1.63441
C          1.60166       -2.87072        2.01937
C          2.78516       -3.78915       -0.00931
H          4.09654       -1.72576        2.30600
H          4.19007       -3.51321        2.23038
H          4.83205       -2.60609        0.86749
H          0.57934       -2.98999        1.60353
H          1.82651       -3.80240        2.58475
H          1.54815       -2.05403        2.77020
H          1.87342       -3.88039       -0.44783
H          3.48227       -3.59889       -0.84393
H          2.95617       -4.74204        0.52447
