83
speciation466.ct
Na         0.96128       -0.08263       -0.04090
Mg         3.99461       -1.16426       -1.57393
C         -1.85642       -1.39067        0.17965
C         -1.96325        0.55312       -1.14968
O         -1.35872       -0.08263       -0.04090
C         -1.56531       -2.37931       -0.95616
C         -1.34793        1.93165       -1.33820
H         -1.35019       -1.77332        1.09138
H         -2.94191       -1.36552        0.41947
H         -1.80148       -0.00241       -2.09585
H         -3.05108        0.69032       -0.95814
H         -0.26677        1.83476       -1.57528
H         -1.85178        2.45233       -2.18066
H         -1.46762        2.53813       -0.41623
H         -0.48153       -2.38383       -1.19587
H         -1.86962       -3.39935       -0.64088
H         -2.14939       -2.13650       -1.86715
C          6.87736        2.62162        0.20713
C          7.04475        2.09132       -1.05125
C          5.82514        1.54588       -1.41177
C          4.96665        1.78037       -0.35089
N          5.61161        2.43269        0.61734
C          3.54177        1.36260       -0.18317
N          3.33128       -0.08263       -0.04090
C          3.82766       -0.79555        1.16331
H          7.96683        2.06724       -1.61830
H          7.65115        3.06744        0.81868
H          5.62307        1.01738       -2.32498
H          2.98170        1.72353       -1.07178
H          3.10404        1.88113        0.69227
C          3.22127       -0.22282        2.43809
C          3.39054       -2.26653        1.04446
C          5.37266       -0.79597        1.28977
H          2.11336       -0.23009        2.38691
H          3.54377       -0.86569        3.28076
H          3.56993        0.81376        2.61878
H          3.82539       -2.72900        0.13455
H          3.73741       -2.85489        1.92463
H          2.28422       -2.34313        0.98881
H          5.83912       -1.19579        0.37522
H          5.79081        0.19808        1.50346
H          5.69483       -1.42909        2.14457
Na         4.88347        2.73572        2.85227
C          5.49865       -3.26429       -2.64436
C          5.16606       -1.46512       -4.14254
O          4.64127       -2.21871       -3.06844
C          6.87666       -2.80636       -2.15336
C          4.17542       -0.37472       -4.52961
H          4.98915       -3.76518       -1.79472
H          5.59842       -4.03673       -3.43750
H          6.11905       -0.96443       -3.87342
H          5.30747       -2.12083       -5.03072
H          4.00843        0.31915       -3.68169
H          4.57720        0.20511       -5.38805
H          3.20003       -0.81871       -4.81431
H          6.77357       -2.00326       -1.40388
H          7.40647       -3.66474       -1.68948
H          7.50450       -2.43915       -2.98942
C          3.83107        4.20007        5.69227
C          3.40834        3.96802        6.98898
C          3.47498        2.60908        7.18728
C          3.94547        2.07819        6.00684
N          4.15533        3.03875        5.08719
C          4.21943        0.63905        5.76833
N          5.60015        0.42991        5.28312
C          6.71932        0.64051        6.23572
H          3.08720        4.70394        7.71318
H          3.89302        5.16917        5.21726
H          3.22346        2.06392        8.08824
H          3.98462        0.00780        6.64561
H          3.50326        0.33769        4.99351
C          6.57843       -0.29791        7.45243
C          8.01478        0.28418        5.48009
C          6.84441        2.10163        6.69457
H          6.51668       -1.35843        7.12167
H          7.44223       -0.17707        8.13203
H          5.66497       -0.05898        8.03782
H          8.12130        0.93584        4.58479
H          8.89305        0.44165        6.13743
H          8.00127       -0.77518        5.14570
H          6.86964        2.78555        5.81697
H          6.02073        2.40019        7.36509
H          7.76327        2.24956        7.28667
