95
speciation1826.ct
Na         1.29777        1.88268       -0.01355
Mg         3.90662        0.90727       -5.40684
C          1.65879        0.99100       -7.14458
C          3.59348        1.82725       -8.09397
O          2.88590        1.64266       -6.88364
C          0.88809        0.78040       -5.85073
C          4.93298        2.49679       -7.83020
H          1.02302        1.64004       -7.79082
H          1.81522        0.00275       -7.63292
H          3.77406        0.86106       -8.61741
H          3.01876        2.51682       -8.75494
H          5.58489        1.82933       -7.22993
H          5.43200        2.70958       -8.80089
H          4.78508        3.45592       -7.29052
H          0.72581        1.75152       -5.33673
H         -0.10243        0.33207       -6.08333
H          1.44482        0.09390       -5.17989
H          8.34916        0.74048        1.50727
C          9.51393       -0.14821       -0.05014
C          8.17409        0.47007        0.44035
C          9.40177       -0.66299       -1.48623
H         10.32297        0.60147        0.02354
H          9.79636       -1.01339        0.60730
H          8.65674       -1.48413       -1.50370
H          9.06754        0.17793       -2.12288
C         10.70545       -1.21940       -2.05566
H          7.42332       -0.35105        0.45654
H         11.50405       -0.45011       -2.03142
H         11.03894       -2.11968       -1.49822
H         10.53344       -1.51123       -3.11534
C         -1.78176        1.09993       -0.05784
C         -2.39785       -0.13314       -0.08597
C         -1.40654       -1.08677       -0.08874
C         -0.20923       -0.39225       -0.06688
N         -0.44995        0.93174       -0.04015
C          1.18053       -1.00456       -0.05276
N          2.24500        0.03300       -0.00400
C          3.14596        0.02371        1.16686
H         -3.47047       -0.31593       -0.10211
H         -2.26742        2.06658       -0.05167
H         -1.53124       -2.16016       -0.11036
H          1.31288       -1.60070       -0.97774
H          1.23567       -1.70506        0.80392
C          3.96061       -1.28544        1.23096
C          4.12989        1.19476        0.99393
C          2.35796        0.24097        2.47759
H          4.52618       -1.43407        0.28649
H          4.68691       -1.24824        2.07172
H          3.31439       -2.17103        1.39251
H          3.58460        2.16168        0.93628
H          4.84196        1.24689        1.84606
H          4.71737        1.07336        0.05929
H          1.78236        1.18990        2.42984
H          1.64673       -0.58500        2.67821
H          3.05338        0.29754        3.34282
Na         3.59933        0.09296       -1.94799
Mg         6.99989        2.29992       -0.42552
H          7.25870        4.95247       -0.02254
C          9.34480        4.55278       -0.45667
C          7.99666        4.13996        0.15558
C          9.31547        4.77642       -1.97514
H          9.67148        5.50848        0.01504
H         10.10043        3.77737       -0.21514
H          8.62638        5.61044       -2.23581
H         10.33950        5.06242       -2.30313
C          8.90470        3.52150       -2.73001
H          8.14016        4.05859        1.25377
H          9.55801        2.66837       -2.45554
H          7.86643        3.27119       -2.47848
H          8.96437        3.69729       -3.82385
C          4.74091        3.99794       -1.76858
C          3.98808        4.11992       -2.94047
C          4.36563        3.08744       -3.74797
C          5.32023        2.37617       -3.04577
N          5.56365        2.91849       -1.83373
C          5.98444        1.14937       -3.55064
N          4.95365        0.15292       -3.89199
C          5.46999       -1.17726       -4.25406
H          3.27022        4.87989       -3.18074
H          4.67497        4.68555       -0.93320
H          3.99370        2.89033       -4.74495
H          6.65603        0.79495       -2.74148
H          6.57840        1.42563       -4.44235
C          5.98280       -1.87878       -2.98799
C          4.29770       -1.96046       -4.85926
C          6.59244       -1.10562       -5.32036
H          5.19540       -1.90178       -2.20699
H          6.32931       -2.90913       -3.19918
H          6.83769       -1.32557       -2.57872
H          3.93578       -1.44270       -5.77366
H          4.61388       -2.98644       -5.14061
H          3.45310       -2.02232       -4.13907
H          6.23669       -0.57989       -6.23287
H          7.49495       -0.58022       -4.94044
H          6.91581       -2.12909       -5.60618
