95
speciation1400.ct
Na         5.02977        0.04295        2.57287
Mg         1.65947       -0.04467       -2.12713
C          6.35878        1.52481        4.86327
C          3.97671        1.57603        5.00124
O          5.12524        1.53595        4.15227
C          6.50613        0.38775        5.88083
C          3.87573        2.83972        5.88132
H          7.16170        1.41193        4.10908
H          6.55404        2.51006        5.34316
H          3.07888        1.57842        4.35216
H          3.90601        0.66548        5.63122
H          3.84129        3.75798        5.25829
H          2.94281        2.79522        6.48562
H          4.71691        2.91946        6.60165
H          6.29261       -0.58462        5.39323
H          7.54385        0.37870        6.27630
H          5.82887        0.53119        6.74951
H          1.23921       -0.61147       -4.80542
C          1.93210        1.41408       -5.08868
C          1.16543        0.35794       -4.26691
C          3.40427        1.06237       -5.28927
H          1.47396        1.50064       -6.10151
H          1.84460        2.40451       -4.60373
H          3.50645        0.12175       -5.86010
H          3.90232        1.87813       -5.86641
C          4.12825        0.91226       -3.95060
H          0.09346        0.65204       -4.26628
H          4.05563        1.85170       -3.37142
H          3.66569        0.08390       -3.37627
H          5.19795        0.67871       -4.11704
C          1.80101       -3.10662       -2.02692
C          2.22555       -4.18621       -1.26425
C          2.81481       -3.67114       -0.13313
C          2.75842       -2.29881       -0.25931
N          2.11309       -1.94148       -1.40428
C          3.38337       -1.34619        0.72850
N          4.81145       -1.61243        1.00979
C          5.73301       -1.58140       -0.19972
H          2.13958       -5.23775       -1.50540
H          1.29659       -3.18399       -2.98126
H          3.27992       -4.23714        0.66832
H          2.83639       -1.43418        1.68924
H          3.29369       -0.31095        0.37798
C          5.68274       -0.21515       -0.90982
C          7.16720       -1.85084        0.27294
C          5.45807       -2.67968       -1.27843
H          5.95976        0.60365       -0.21779
H          6.37621       -0.20186       -1.78058
H          4.67061       -0.01720       -1.31207
H          7.23728       -2.86234        0.72981
H          7.86874       -1.82869       -0.59463
H          7.49980       -1.09099        1.00486
H          5.44592       -3.70003       -0.83928
H          4.54895       -2.50510       -1.87646
H          6.24789       -2.67012       -2.06122
Na         2.03605        5.22238       -3.98860
Mg         4.82895       -3.39715        1.88989
H          4.81568       -6.02137        2.01736
C          3.65312       -5.34268        3.73075
C          4.84688       -5.22671        2.79210
C          3.70808       -4.24608        4.80073
H          2.71726       -5.24376        3.13994
H          3.67158       -6.34309        4.21566
H          4.65301       -4.33410        5.38122
H          3.68270       -3.24749        4.31171
C          2.53325       -4.35682        5.76828
H          5.78971       -5.32650        3.37124
H          1.57134       -4.25931        5.22198
H          2.55824       -5.33542        6.29398
H          2.59708       -3.54680        6.52553
C          1.18007        0.93552        0.52098
C          1.23149        1.93902        1.45963
C          1.60113        3.07251        0.78288
C          1.75869        2.71507       -0.53498
N          1.54115        1.38610       -0.70072
C          2.13511        3.69473       -1.60274
N          1.10768        3.83131       -2.64942
C         -0.20210        4.45255       -2.31353
H          1.03168        1.84912        2.51762
H          0.92635       -0.09354        0.73036
H          1.74172        4.05981        1.21706
H          2.35715        4.68905       -1.16351
H          3.07559        3.35762       -2.07088
C         -0.03530        5.82159       -1.61765
C         -0.94562        4.67650       -3.64297
C         -1.08021        3.52469       -1.44816
H          0.57016        6.50954       -2.24624
H         -1.02730        6.29369       -1.44526
H          0.45079        5.71918       -0.62601
H         -1.08777        3.71139       -4.17506
H         -1.94665        5.12967       -3.46850
H         -0.37273        5.35773       -4.30792
H         -1.19871        2.53456       -1.93735
H         -0.67347        3.38046       -0.43524
H         -2.08826        3.97007       -1.30356
