83
speciation469.ct
Na         4.86390        2.99004       -0.83202
Mg         0.43269        5.10970        5.74084
C          4.21226        4.85281       -3.30749
C          5.50792        3.04474       -3.93237
O          5.23894        3.97197       -2.90025
C          3.92431        5.85292       -2.19697
C          6.59148        2.07312       -3.49203
H          4.55395        5.44381       -4.18874
H          3.27402        4.30657       -3.55359
H          4.59793        2.46304       -4.20473
H          5.89857        3.58167       -4.82742
H          6.23913        1.47190       -2.62820
H          6.83444        1.38729       -4.33234
H          7.51063        2.62720       -3.20681
H          4.85223        6.39909       -1.92273
H          3.16898        6.58918       -2.54670
H          3.52893        5.32930       -1.30177
C          2.70625       -0.51084        4.41899
C          3.34623       -1.65560        4.01317
C          3.85900       -1.40044        2.75223
C          3.50024       -0.09886        2.43355
N          2.79344        0.42479        3.46169
C          3.88738        0.63020        1.14371
N          4.48078        1.98695        1.28078
C          5.78072        2.12448        1.99217
H          3.46382       -2.56002        4.59365
H          2.25105       -0.33994        5.38650
H          4.44850       -2.08327        2.15610
H          2.94857        0.75652        0.56994
H          4.54253       -0.01803        0.52287
C          6.86214        1.21307        1.37641
C          6.23650        3.58761        1.83495
C          5.65987        1.84793        3.50738
H          6.97846        1.42684        0.29231
H          7.84248        1.38257        1.87343
H          6.60851        0.14063        1.50580
H          5.48348        4.28109        2.26776
H          7.20502        3.75752        2.35626
H          6.37853        3.84778        0.76552
H          4.87259        2.48793        3.96137
H          5.44900        0.78792        3.73026
H          6.62207        2.07202        4.01734
Na         2.24340        2.69976        3.83435
C         -0.57043        4.18105        8.14823
C         -2.16594        5.39971        6.91361
O         -0.79630        5.24129        7.23612
C         -0.91571        2.79128        7.60127
C         -2.34268        6.54295        5.92600
H          0.51549        4.18800        8.38113
H         -1.08994        4.37155        9.11321
H         -2.59497        4.49331        6.43886
H         -2.73668        5.66446        7.83135
H         -1.85484        6.29388        4.96705
H         -3.42423        6.70166        5.72802
H         -1.90403        7.47949        6.32742
H         -0.40090        2.61805        6.63344
H         -0.58543        2.02048        8.32907
H         -2.00981        2.66529        7.47173
C          5.07514        4.45600        7.35972
C          4.01639        3.57416        7.46393
C          3.11500        3.89677        6.47155
C          3.59450        4.92739        5.77743
N          4.84540        5.34115        6.29919
C          2.96689        5.61166        4.59757
N          1.69335        4.97473        4.20701
C          1.06796        5.52624        2.97708
H          3.92737        2.78481        8.19508
H          5.95138        4.46582        7.99189
H          2.17549        3.38405        6.28096
H          3.70553        5.53942        3.77810
H          2.80480        6.67288        4.87095
C          1.98418        5.35409        1.74114
C         -0.22081        4.72979        2.71674
C          0.70815        7.02007        3.14183
H          2.25766        4.28603        1.60333
H          1.46458        5.70337        0.82236
H          2.91297        5.95385        1.81800
H         -0.91313        4.80691        3.57680
H         -0.74309        5.10778        1.81014
H          0.01070        3.65403        2.56424
H          0.03974        7.17293        4.01181
H          1.61185        7.64763        3.28110
H          0.19379        7.39810        2.23156
