110
speciation2302.ct
Na         1.37581        1.98228        0.11417
Mg         6.38631        1.14270       -3.13642
C          2.10301        4.43006        1.57952
C          1.59925        4.73990       -0.71806
O          2.09223        3.86310        0.28058
C          0.72660        4.81151        2.10239
C          1.62992        3.94465       -2.02278
H          2.50912        3.64178        2.26035
H          2.80969        5.27934        1.61444
H          0.54895        5.03150       -0.53884
H          2.28878        5.58591       -0.83643
H          0.94535        3.06302       -1.98885
H          1.33668        4.58460       -2.88162
H          2.66252        3.57305       -2.16978
H          0.02273        3.95599        2.02943
H          0.81964        5.11284        3.16281
H          0.31654        5.68375        1.54660
H          5.53546        3.16377       -1.61096
C          7.66416        3.50017       -1.42688
C          6.46836        2.56222       -1.53318
C          7.53362        4.43028       -0.20593
H          8.58546        2.88821       -1.33160
H          7.72060        4.11084       -2.35169
H          6.61236        5.04784       -0.29653
H          7.46133        3.82990        0.72852
C          8.73797        5.36117       -0.09410
H          6.43012        1.96437       -0.60476
H          9.66861        4.76967        0.03912
H          8.82769        5.98486       -1.00849
H          8.61678        6.03276        0.78290
C         -1.69896        1.12642        0.06151
C         -2.35418       -0.08577       -0.05776
C         -1.37964       -1.06047       -0.16509
C         -0.16971       -0.39752       -0.09566
N         -0.37131        0.91732        0.03125
C          1.19287       -1.01015       -0.15370
N          2.24500        0.03300       -0.00400
C          3.15176       -0.11347        1.12420
H         -3.42257       -0.23737       -0.06752
H         -2.15717        2.09958        0.15167
H         -1.53376       -2.12600       -0.26936
H          1.32697       -1.51809       -1.13342
H          1.21802       -1.77392        0.63905
C          3.90466       -1.41851        0.99010
C          4.16796        1.02642        1.03769
C          2.40814       -0.04086        2.47596
H          4.48778       -1.46981        0.04585
H          4.56752       -1.44025        1.84167
H          3.22942       -2.28655        1.03723
H          3.67235        2.00971        1.10307
H          4.93065        0.95705        1.84322
H          4.67113        0.96161        0.05625
H          1.83187        0.90398        2.55311
H          1.70969       -0.89176        2.61027
H          3.13558       -0.08244        3.31605
Na         6.97996       -3.14884       -0.76185
Mg         3.38218        0.08335       -1.63630
C          7.23847       -5.17221        1.54120
C          6.15263       -3.41789        2.58104
O          6.95440       -3.77697        1.47136
C          8.28509       -5.58537        0.52122
C          4.75642       -4.08314        2.56073
H          7.65488       -5.44515        2.53962
H          6.33125       -5.77538        1.32154
H          6.65065       -3.65812        3.54593
H          6.14990       -2.32532        2.62066
H          4.82215       -5.15909        2.82822
H          4.08360       -3.60601        3.30332
H          4.30933       -4.04194        1.54962
H          9.23614       -5.04346        0.69682
H          8.47117       -6.67789        0.62731
H          7.91926       -5.39350       -0.50801
H          8.60263        0.30885       -4.67871
C          9.40687        2.29661       -4.39888
C          8.21839        1.34666       -4.56329
C         10.38970        2.18893       -5.59160
H          9.01733        3.33582       -4.35696
H          9.93772        2.05887       -3.45672
H         10.79186        1.15445       -5.66673
H          9.87039        2.42737       -6.54804
C         11.56074        3.15636       -5.43072
H          7.77796        1.64064       -5.54266
H         11.19209        4.20356       -5.39329
H         12.11751        2.92943       -4.49780
H         12.25850        3.06018       -6.29150
C          8.08094       -2.92191       -3.73154
C          7.93530       -2.62944       -5.04940
C          6.71588       -2.02403       -5.16937
C          6.14904       -1.89584       -3.88224
N          7.00607       -2.50718       -3.04318
C          4.77585       -1.35013       -3.37086
N          4.51935        0.13370       -3.26860
C          4.16980        0.81439       -4.58076
H          8.63619       -2.86720       -5.84295
H          8.91635       -3.44392       -3.28114
H          6.37732       -1.77033       -6.15093
H          4.74593       -1.69257       -2.31367
H          3.92987       -1.87851       -3.84939
C          2.77535        0.45584       -5.12664
C          4.29312        2.34768       -4.45935
C          5.15755        0.43168       -5.66847
H          1.96866        0.84044       -4.47927
H          2.65637        0.89343       -6.14785
H          2.66837       -0.64267       -5.24331
H          5.26323        2.66172       -4.02499
H          4.22733        2.83367       -5.46159
H          3.46380        2.76031       -3.88511
H          6.13755        0.38974       -5.21498
H          4.84123       -0.53438       -6.07855
H          5.20590        1.11651       -6.54011
