110
speciation2051.ct
Na        -4.19403       -5.68712       -1.51523
Mg        -2.57240        0.43826       -3.46230
C         -5.06753       -7.36445        0.79222
C         -7.08469       -6.79189       -0.25845
O         -5.67230       -6.61545       -0.24751
C         -5.17076       -8.88692        0.60725
C         -7.75518       -6.03845       -1.39077
H         -3.99186       -7.10782        0.78393
H         -5.45233       -7.05075        1.78853
H         -7.36911       -7.85721       -0.41780
H         -7.52382       -6.41513        0.69288
H         -7.41356       -6.43338       -2.35921
H         -8.85618       -6.19037       -1.32610
H         -7.53224       -4.95610       -1.33084
H         -4.81354       -9.17839       -0.40229
H         -4.55011       -9.39546        1.37406
H         -6.20924       -9.25110        0.75011
H         -4.16551       -0.20343       -5.50910
C         -5.17943       -1.17678       -3.84354
C         -3.91104       -0.73993       -4.57169
C         -6.01905       -2.11463       -4.72669
H         -4.89053       -1.71171       -2.91378
H         -5.77053       -0.27687       -3.57231
H         -6.31180       -1.58492       -5.65896
H         -5.42240       -3.01368       -5.00362
C         -7.28213       -2.57820       -4.00602
H         -3.33968       -1.65320       -4.82354
H         -7.01633       -3.15777       -3.09674
H         -7.90205       -1.70369       -3.71609
H         -7.87956       -3.22997       -4.67878
C         -1.54747       -5.14408        0.10107
C         -0.36230       -4.52603        0.39873
C         -0.27171       -3.44247       -0.43134
C         -1.44369       -3.38394       -1.15854
N         -2.21339       -4.49857       -0.87522
C         -1.69524       -2.28350       -2.19858
N         -2.17309       -0.94670       -1.69675
C         -1.38279       -0.15536       -0.71432
H          0.38918       -4.82556        1.13094
H         -1.88461       -6.05735        0.57935
H          0.56860       -2.76459       -0.48240
H         -0.79739       -2.16124       -2.84307
H         -2.49929       -2.67218       -2.85231
C         -0.03373        0.24650       -1.34553
C         -2.25554        1.05851       -0.42048
C         -1.16983       -0.72936        0.71664
H         -0.19625        0.69794       -2.33613
H          0.52447        0.96850       -0.71467
H          0.60708       -0.64971       -1.48880
H         -3.14837        0.78586        0.18136
H         -1.70215        1.87361        0.09597
H         -2.69199        1.36857       -1.34295
H         -2.12737       -1.09033        1.14909
H         -0.40756       -1.48405        0.85859
H         -0.78479        0.07542        1.38600
Na        -3.91019       -1.49923       -0.58435
Mg        -6.62705       -8.55027       -6.89990
C         -4.25189        2.91281       -4.16406
C         -2.51744        3.43920       -2.63200
O         -3.33636        2.39035       -3.18927
C         -3.68204        3.89973       -5.21019
C         -3.31455        4.36655       -1.69237
H         -4.68217        2.05704       -4.71636
H         -5.11272        3.39467       -3.64769
H         -1.67959        3.01420       -2.05443
H         -1.96304        4.01959       -3.39238
H         -3.82188        3.78106       -0.89680
H         -2.63225        5.09926       -1.21062
H         -4.08041        4.94675       -2.24929
H         -2.82074        3.45186       -5.74367
H         -4.46779        4.16222       -5.94912
H         -3.37558        4.86653       -4.75424
H         -1.46400        1.45144       -5.69173
C          0.01185       -0.10730       -5.56479
C         -0.94102        0.88847       -4.88787
C         -0.70611       -1.11388       -6.46851
H          0.73295        0.46631       -6.19355
H          0.58255       -0.64213       -4.77830
H         -1.42757       -1.69418       -5.86989
H         -1.24738       -0.58010       -7.28192
C          0.28344       -2.09806       -7.09258
H         -0.30445        1.62336       -4.35265
H          1.02115       -1.56640       -7.73099
H          0.82475       -2.65123       -6.29536
H         -0.26396       -2.83326       -7.72012
C         -3.47844       -5.85132       -4.35788
C         -3.52836       -6.26083       -5.66607
C         -4.54831       -7.17539       -5.74615
C         -5.09990       -7.29239       -4.47263
N         -4.42137       -6.45972       -3.61496
C         -6.27240       -8.20232       -4.14319
N         -6.37175       -9.30989       -5.12338
C         -7.52256      -10.24699       -5.02842
H         -2.89599       -5.93478       -6.47707
H         -2.77779       -5.12906       -3.96177
H         -4.84907       -7.68813       -6.64680
H         -6.14549       -8.60887       -3.11881
H         -7.18998       -7.58493       -4.19811
C         -8.85679       -9.51794       -5.28987
C         -7.33185      -11.30414       -6.13484
C         -7.58845      -10.98054       -3.67385
H         -8.83063       -8.99757       -6.27087
H         -9.69902      -10.24578       -5.30983
H         -9.07864       -8.77841       -4.49520
H         -6.38315      -11.86355       -5.98280
H         -8.16787      -12.03903       -6.14085
H         -7.29058      -10.82327       -7.13609
H         -6.65051      -11.54255       -3.48104
H         -7.77452      -10.27741       -2.83782
H         -8.42798      -11.71484       -3.68294
