96
speciation1371.ct
Na         7.16148        1.11752        0.15906
Mg         1.37671        1.82093       -2.07331
C         10.11818        1.74927        1.15781
C          9.80813        3.03194       -0.80049
O          9.30580        1.99286        0.02466
C          9.52951        0.60669        1.97859
C          9.73246        4.43122       -0.17523
H         11.12739        1.43165        0.82186
H         10.18207        2.62747        1.83778
H         10.85427        2.80455       -1.10662
H          9.21781        3.03695       -1.74011
H         10.35894        4.51297        0.73633
H         10.12928        5.17289       -0.90143
H          8.68377        4.69555        0.07012
H          9.23383       -0.23336        1.31647
H         10.28803        0.24020        2.70365
H          8.63943        0.95243        2.54874
H          0.84702        2.26110        0.48380
C         -1.19331        2.51550        0.05660
C          0.24601        2.56338       -0.40346
C         -1.58972        1.18347        0.69250
H         -1.29829        3.28111        0.86670
H         -1.85665        2.79464       -0.78256
H         -1.42580        0.32757       -0.00374
H         -0.94863        1.01625        1.58928
C         -3.05442        1.31352        1.13087
H          0.45134        3.62339       -0.58627
H         -3.22723        2.32516        1.55465
H         -3.71326        1.19585        0.24254
H         -3.34250        0.61349        1.94251
C          4.67765       -1.09095        0.31186
C          3.31188       -1.28158        0.25949
C          2.73313       -0.03212        0.19568
C          3.77701        0.87306        0.19734
N          4.97094        0.22332        0.29637
C          3.66270        2.37066        0.18527
N          3.01746        3.07565       -0.97597
C          3.17724        4.61674       -0.66821
H          2.78744       -2.22786        0.26283
H          5.41968       -1.87698        0.34159
H          1.67838        0.17445        0.14294
H          3.11760        2.61536        1.12274
H          4.70641        2.67648        0.28764
C          4.67099        5.06647       -0.50564
C          2.63361        5.50864       -1.77668
C          2.43685        5.13483        0.62185
H          5.26571        4.83463       -1.41007
H          4.72546        6.16902       -0.35391
H          5.16705        4.66613        0.39253
H          1.54771        5.35997       -1.87807
H          2.75274        6.58938       -1.53001
H          3.25585        5.37248       -2.66631
H          1.33871        5.12075        0.55607
H          2.75569        4.64693        1.55601
H          2.67164        6.21107        0.77172
Mg         3.63729        2.27178       -2.78238
C          6.21133        2.75936       -3.81123
C          5.20624        0.65877       -4.30742
O          5.38326        1.69902       -3.35262
C          5.76808        3.40837       -5.12127
C          6.47358       -0.14173       -4.60780
H          6.19311        3.54344       -3.03187
H          7.26960        2.43333       -3.87371
H          4.51439       -0.08212       -3.87124
H          4.72918        1.02734       -5.23757
H          6.83035       -0.65047       -3.68768
H          6.23365       -0.91664       -5.36873
H          7.27781        0.49575       -5.02211
H          4.73019        3.74496       -4.99894
H          6.40316        4.28905       -5.34393
H          5.85827        2.71601       -5.98508
C         -1.38430        0.00505       -3.29770
C         -1.49171       -0.52501       -4.59501
C         -0.29928       -0.30664       -5.20684
C          0.46440        0.32932       -4.25950
N         -0.19483        0.63417       -3.14266
C          1.87845        0.76584       -4.42740
N          2.02506        2.17858       -4.02363
C          1.50462        3.11693       -5.09672
H         -2.35616       -1.01967       -5.01332
H         -2.16398        0.00450       -2.55772
H         -0.02893       -0.58409       -6.21893
H          2.27864        0.50448       -5.43028
H          2.41922        0.15511       -3.69101
C         -0.01077        2.97353       -5.40777
C          1.65712        4.51821       -4.58347
C          2.30158        3.03085       -6.44240
H         -0.62728        3.02054       -4.48409
H         -0.34854        3.81577       -6.06071
H         -0.25145        2.07709       -5.99791
H          2.73214        4.67347       -4.44105
H          1.30492        5.28902       -5.29960
H          1.04913        4.58192       -3.67286
H          3.20106        3.67010       -6.45772
H          2.63525        2.02392       -6.73726
H          1.68114        3.39548       -7.28894
