110
speciation2265.ct
Na         2.12129       -0.44759        1.34353
Mg         1.94438        4.86414       -1.31299
C         -1.03424       -1.26800        1.94877
C          0.00928       -0.48420        3.87665
O          0.19551       -0.92279        2.54685
C         -0.79777       -1.75350        0.52809
C          1.34672       -0.11683        4.50401
H         -1.49468       -2.11872        2.50228
H         -1.72682       -0.39721        1.91844
H         -0.64837        0.41285        3.91230
H         -0.41701       -1.31008        4.49153
H          1.81473        0.72339        3.95008
H          1.18409        0.19647        5.55838
H          2.03123       -0.99150        4.49699
H         -0.09582       -2.61328        0.52692
H         -1.76249       -2.07175        0.07848
H         -0.36885       -0.94249       -0.08700
H          0.74557        6.31186        0.61869
C          1.89883        4.98386        1.88095
C          1.09132        5.25827        0.61579
C          3.11751        5.89109        1.97146
H          1.24785        5.15470        2.76557
H          2.20605        3.92355        1.90083
H          3.76892        5.70980        1.09678
H          2.78038        6.95062        1.97523
C          3.91309        5.62104        3.24415
H          0.17935        4.63502        0.67742
H          3.27354        5.77338        4.14002
H          4.29883        4.57920        3.24340
H          4.77265        6.32141        3.29733
C          5.01874       -0.86773       -0.24807
C          6.02288       -0.26025       -0.97586
C          5.68595        1.07350       -1.06159
C          4.48575        1.21194       -0.37287
N          4.08857        0.03785        0.11428
C          3.70896        2.45572       -0.15136
N          2.83992        2.78224       -1.28616
C          1.77671        1.81058       -1.65973
H          6.90091       -0.74860       -1.37528
H          4.96361       -1.91741        0.01137
H          6.25043        1.84663       -1.55919
H          3.12965        2.35437        0.77846
H          4.41708        3.26888        0.02912
C          0.76109        1.72668       -0.51240
C          1.24151        2.36555       -2.95755
C          2.17593        0.37688       -2.12219
H          0.48140        2.72456       -0.16595
H         -0.15088        1.17125       -0.79233
H          1.22142        1.22834        0.35954
H          1.97213        2.29426       -3.78301
H          0.29111        1.88209       -3.26300
H          1.20215        3.41640       -2.85303
H          2.94686        0.40705       -2.92190
H          2.45956       -0.33328       -1.35270
H          1.28520       -0.12859       -2.56129
Na         4.14991        2.39065       -3.22200
Mg         0.63880        2.98988       -5.27151
C          5.04460        2.87289       -6.17098
C          5.52333        0.65666       -5.53084
O          5.43227        2.00733       -5.11699
C          3.65490        2.58913       -6.75644
C          5.90228       -0.22094       -4.35020
H          5.02260        3.89848       -5.74585
H          5.81639        2.88940       -6.97165
H          4.55821        0.26706       -5.91533
H          6.32167        0.55190       -6.29842
H          5.09601       -0.19513       -3.59107
H          6.02700       -1.27161       -4.68857
H          6.85209        0.12899       -3.89570
H          2.89634        2.54932       -5.95003
H          3.38257        3.39924       -7.46487
H          3.63989        1.64034       -7.33070
H          3.92800        6.12908       -2.92603
C          5.06875        6.76588       -1.22279
C          3.71332        6.39449       -1.86741
C          6.07436        5.62163       -1.22539
H          5.52730        7.61800       -1.78261
H          4.89008        7.12700       -0.18934
H          5.62746        4.76931       -0.71162
H          6.32010        5.33107       -2.27020
C          7.35619        5.98713       -0.47771
H          3.25114        7.39222       -1.88679
H          7.89437        6.81609       -0.98401
H          7.11961        6.28924        0.56595
H          8.02164        5.09865       -0.43879
C         -2.20417        3.05025       -5.64579
C         -3.42859        3.37939       -5.10046
C         -3.16629        3.88361       -3.84442
C         -1.79167        3.84656       -3.66980
N         -1.21616        3.32634       -4.78163
C         -1.07680        4.29431       -2.39663
N          0.08367        5.23650       -2.60469
C         -0.33751        6.62486       -2.96189
H         -4.39751        3.27086       -5.57050
H         -2.05519        2.62634       -6.63660
H         -3.90222        4.23938       -3.13608
H         -0.73848        3.39036       -1.89457
H         -1.79621        4.67029       -1.65217
C         -1.35971        7.20529       -1.95341
C          0.87995        7.52561       -2.91321
C         -0.87491        6.68746       -4.41236
H         -0.93474        7.16256       -0.92475
H         -1.58857        8.26464       -2.19169
H         -2.33069        6.67543       -1.95769
H          1.66474        7.16621       -3.61396
H          0.61883        8.56983       -3.19326
H          1.22608        7.54617       -1.86557
H         -0.11992        6.26864       -5.11408
H         -1.82457        6.14892       -4.55363
H         -1.07898        7.73762       -4.71117
