81
speciation677.ct
Na         1.55856        0.60751       -0.21627
Mg         0.43907       -1.21387       -0.57869
C         -0.09957       -3.72792        1.21411
C         -2.14334       -2.89093        0.34919
O         -0.76316       -2.61072        0.60611
C         -0.20929       -5.09309        0.51493
C         -3.00024       -3.02586        1.62638
H          0.97572       -3.50912        1.20028
H         -0.40591       -3.82901        2.28314
H         -2.56843       -2.04760       -0.21905
H         -2.27713       -3.77685       -0.30362
H         -2.95509       -2.09778        2.23384
H         -4.06128       -3.20393        1.34243
H         -2.69085       -3.88594        2.25809
H          0.17776       -5.01952       -0.51893
H          0.40963       -5.83446        1.06953
H         -1.24209       -5.49728        0.51576
H          0.36098       -3.30799       -2.20073
C          0.21413       -1.47724       -3.46250
C         -0.10177       -2.30832       -2.23946
C         -0.19166       -2.06105       -4.80637
H         -0.40781       -0.56961       -3.38805
H          1.29610       -1.24161       -3.44218
H         -1.29843       -2.15460       -4.86892
H          0.13784       -1.33711       -5.58575
C          0.44774       -3.41012       -5.06285
H         -1.21177       -2.40869       -2.21870
H          1.55044       -3.33617       -4.96010
H          0.05005       -4.15423       -4.34221
H          0.18897       -3.73796       -6.08878
C          4.26034        1.17297       -6.05186
C          3.13387        1.33837       -6.86105
C          1.97906        1.40476       -6.05438
C          2.41005        1.27099       -4.75442
N          3.91319        1.12660       -4.75991
C          1.09510        1.45270       -3.24761
N          0.25490        0.92516       -1.71277
C         -1.06803        1.32586       -0.72875
H          3.12822        1.39079       -7.93560
H          5.27361        1.10583       -6.42197
H          1.00579        1.52048       -6.39200
H          0.22230        1.57571       -3.86755
H          1.36773        2.48691       -2.92693
C         -2.51048        0.96602       -1.25282
C         -1.12157        0.50008        0.61900
C         -1.24406        2.76121       -0.04286
H         -2.64712       -0.10603       -1.48227
H         -3.28731        1.11238       -0.43127
H         -2.92011        1.65309       -2.00237
H         -0.73715        0.99976        1.52446
H         -2.11655        0.45812        1.14491
H         -0.93960       -0.51523        0.52700
H         -0.40998        3.07558        0.63128
H         -1.65313        3.57921       -0.65246
H         -2.07817        2.71213        0.73827
Mg         4.02656        1.01788       -2.77612
C          5.04089        1.83183       -0.40792
C          5.83905        1.33166        0.59023
C          5.44495        0.02587        0.77180
C          4.34829       -0.18048       -0.04789
N          4.13993        0.90916       -0.79233
C          3.49600       -1.39365       -0.09131
N          2.25440       -1.10755        0.65012
C          2.34582       -0.85216        2.16308
H          6.66414        1.83470        1.07523
H          5.20116        2.77556       -0.91154
H          5.88588       -0.68311        1.46078
H          4.00180       -2.26864        0.35759
H          3.25593       -1.62885       -1.15176
C          3.34655        0.23963        2.65770
C          1.03447       -0.30155        2.64607
C          2.63303       -2.14051        2.95395
H          3.30042        1.16418        2.03654
H          3.11765        0.57203        3.69523
H          4.34908       -0.15960        2.82789
H          0.20589       -0.98018        2.37820
H          0.99449       -0.15429        3.74642
H          1.01433        0.71025        2.21023
H          1.76576       -2.81495        2.98521
H          3.51347       -2.66991        2.54293
H          2.83905       -1.89849        4.01884
