95
speciation1644.ct
Na         5.23401        3.37671        3.26468
Mg         2.54401        4.34269       -1.00592
C          3.61951        5.29479       -3.21244
C          2.71691        7.10332       -1.98620
O          2.57543        5.73471       -2.36396
C          5.03902        5.67357       -2.77384
C          2.64825        8.06326       -3.18491
H          3.55891        4.19088       -3.20239
H          3.43322        5.62922       -4.25016
H          1.86607        7.38902       -1.34400
H          3.63744        7.27318       -1.38905
H          1.66743        7.96311       -3.69457
H          2.76756        9.10706       -2.82786
H          3.45366        7.87706       -3.92424
H          5.13722        5.48058       -1.69337
H          5.78646        5.08894       -3.35213
H          5.25244        6.74694       -2.93969
H          2.01031        6.34818        0.66852
C          0.71980        5.01668        1.74264
C          1.35671        5.48201        0.43160
C          1.76491        4.55650        2.75652
H          0.15137        5.87167        2.17800
H         -0.00247        4.20058        1.53630
H          2.33613        3.70616        2.33502
H          2.46682        5.39073        2.97766
C          1.09924        4.11486        4.05889
H          0.52388        5.84631       -0.20825
H          0.53876        4.95908        4.51626
H          0.39635        3.27610        3.86697
H          1.87371        3.77360        4.77697
C          6.86811        4.18367        0.81908
C          7.04962        4.07675       -0.53974
C          6.03917        3.27157       -1.00194
C          5.26241        2.93875        0.08385
N          5.78254        3.48749        1.20442
C          4.04667        2.05570        0.04325
N          3.16646        2.35038       -1.12459
C          2.00548        1.41226       -1.24677
H          7.82551        4.53549       -1.13665
H          7.50406        4.74024        1.49387
H          5.88758        2.99835       -2.02651
H          4.43649        1.02497       -0.04127
H          3.50370        2.15314        1.00662
C          0.99763        1.61207       -0.09689
C          1.30407        1.72070       -2.57934
C          2.43229       -0.07826       -1.28575
H          0.66913        2.66779       -0.05488
H          0.10035        0.97018       -0.24568
H          1.43630        1.32874        0.88114
H          1.98453        1.51057       -3.43046
H          0.40235        1.08134       -2.70893
H          0.98920        2.78504       -2.63128
H          3.18881       -0.25526       -2.07990
H          2.83963       -0.42443       -0.31497
H          1.55286       -0.72753       -1.49523
Na         4.30031        2.07191       -3.09041
Mg         7.12749        2.91748       -4.91501
H          9.19351        4.26705       -5.81846
C          9.91769        3.15873       -4.09407
C          8.85584        3.99461       -4.79580
C         10.20202        1.87693       -4.88372
H         10.84981        3.75864       -4.00569
H          9.55504        2.90111       -3.07551
H          9.26875        1.27957       -4.98008
H         10.56400        2.14056       -5.90192
C         11.26528        1.02811       -4.19226
H          8.65665        4.92341       -4.22079
H         12.21292        1.60007       -4.09435
H         10.91745        0.72096       -3.18310
H         11.46318        0.11593       -4.79396
C          7.27140       -0.18128       -1.73602
C          7.29652       -1.43834       -2.29730
C          6.76570       -1.32928       -3.56752
C          6.42507       -0.05577       -3.77304
N          6.72513        0.73665       -2.64929
C          5.79130        0.42695       -5.04309
N          5.44150        1.86676       -5.03129
C          4.80116        2.29329       -6.32000
H          7.66048       -2.34020       -1.82267
H          7.61578        0.06819       -0.74211
H          6.63376       -2.13841       -4.27541
H          4.87692       -0.18517       -5.16012
H          6.51051        0.19897       -5.85332
C          3.47041        1.54675       -6.58822
C          4.48395        3.78388       -6.23724
C          5.74388        2.09951       -7.53638
H          2.77620        1.66966       -5.73107
H          2.97441        1.95091       -7.49773
H          3.62324        0.46574       -6.77724
H          5.39587        4.37799       -6.01203
H          4.04859        4.15538       -7.19201
H          3.72424        3.92508       -5.46093
H          6.69963        2.64547       -7.38745
H          5.96291        1.03312       -7.74168
H          5.26335        2.48757       -8.46199
