80
speciation870.ct
Na         0.96699        0.04354        0.08375
Mg        -4.60545        2.57146        0.84068
H         -5.41596       -0.10008        1.10223
C         -7.35911        0.61870        0.52279
C         -6.01659        0.82444        1.25857
C         -7.16674        0.47039       -0.99421
H         -7.86958       -0.29628        0.91164
H         -8.00787        1.49124        0.73699
H         -6.58962        1.34309       -1.35632
H         -6.59974       -0.46101       -1.22048
C         -8.49438        0.43970       -1.76134
H         -6.22381        0.86933        2.34771
H         -9.09764       -0.45998       -1.51330
H         -9.09143        1.34994       -1.53888
H         -8.28428        0.42800       -2.85329
C         -2.13055        4.26036        1.43039
C         -0.77165        4.13420        1.64240
C         -0.49770        2.78005        1.63168
C         -1.69557        2.13888        1.42189
N         -2.70508        3.03225        1.30933
C         -1.91320        0.66107        1.32581
N         -1.40301        0.04354        0.08375
C         -2.04750        0.46985       -1.20633
H         -0.04825        4.93662        1.76045
H         -2.65178        5.19627        1.33776
H          0.46432        2.31430        1.77796
H         -2.98711        0.43737        1.44824
H         -1.41154        0.19176        2.19909
C         -1.69310        1.91811       -1.62821
C         -1.53666       -0.44709       -2.32733
C         -3.58144        0.32863       -1.14736
H         -0.59921        2.07842       -1.64614
H         -2.10217        2.13576       -2.64056
H         -2.16207        2.68810       -0.99821
H         -1.78507       -1.50704       -2.11841
H         -2.01474       -0.17061       -3.29668
H         -0.43780       -0.34604       -2.44595
H         -3.87628       -0.71376       -0.89922
H         -4.00066        1.01709       -0.39782
H         -4.05170        0.61080       -2.11293
Na        -1.98306       -1.99592        0.35418
Mg         3.45260       -1.23666        1.55247
H         -3.84707        4.56856       -1.01488
C         -5.72647        5.51938       -0.49477
C         -4.69393        4.40099       -0.31254
C         -6.50360        5.77366        0.79344
H         -5.21393        6.46596       -0.78736
H         -6.41352        5.24346       -1.32512
H         -6.95224        4.82228        1.14423
H         -5.80927        6.15946        1.57387
C         -7.62353        6.78956        0.56987
H         -5.19903        3.50919       -0.72541
H         -7.21495        7.77184        0.24841
H         -8.32496        6.41747       -0.20789
H         -8.18928        6.93022        1.51452
C          2.08536       -3.69487       -2.09971
C          2.10156       -2.97279       -3.27311
C          2.72536       -1.77255       -3.00073
C          3.08044       -1.75549       -1.71121
N          2.69438       -2.95239       -1.06790
C          3.91053       -0.65232       -1.10057
N          3.33699        0.04354        0.08375
C          4.20807        1.18786        0.56152
H          1.72224       -3.29944       -4.23387
H          1.67961       -4.69334       -1.99634
H          2.94343       -0.99918       -3.72815
H          4.07604        0.05955       -1.92471
H          4.87913       -1.12349       -0.83733
C          4.54848        2.16922       -0.58287
C          3.49523        2.00234        1.64269
C          5.50099        0.62645        1.19833
H          3.62408        2.62000       -1.01074
H          5.16700        3.01804       -0.18550
H          5.16345        1.74984       -1.39822
H          3.21707        1.36790        2.50981
H          4.16121        2.81145        2.00868
H          2.58815        2.48491        1.23203
H          5.28800        0.10959        2.15339
H          6.07188       -0.06545        0.55392
H          6.20873        1.46986        1.42909
