110
speciation2225.ct
Na         1.01968        0.58193       -0.45416
Mg        -1.67942        1.67412        0.78763
C         -0.41323       -2.35214        0.06786
C         -0.05928       -1.86384       -2.24985
O         -0.15939       -1.32478       -0.93470
C          0.37332       -3.68477       -0.06693
C         -1.30390       -2.55293       -2.84671
H         -0.16673       -1.92440        1.06074
H         -1.49838       -2.59308        0.09513
H          0.20842       -1.03602       -2.93166
H          0.77227       -2.60010       -2.29855
H         -2.08322       -1.81188       -3.14156
H         -1.04733       -3.04178       -3.78837
H         -1.75988       -3.29962       -2.16447
H          1.45893       -3.53026       -0.11104
H          0.17177       -4.34584        0.80118
H          0.08564       -4.25354       -0.97426
H         -2.53257        3.22531        3.01200
C         -3.76045        1.51439        3.43803
C         -3.07260        2.44973        2.43058
C         -2.71924        0.87167        4.34687
H         -4.47007        2.10683        4.06248
H         -4.34436        0.72585        2.92142
H         -2.01803        0.27503        3.72611
H         -2.15196        1.66997        4.87458
C         -3.36714       -0.03200        5.39355
H         -3.88186        2.99618        1.89407
H         -4.05217        0.55450        6.04199
H         -3.93650       -0.84786        4.90153
H         -2.57349       -0.47901        6.02820
C          2.64036        4.82639       -3.05316
C          2.48994        6.05325       -2.43482
C          2.07575        5.80236       -1.12919
C          1.95585        4.42710       -1.00357
N          2.35361        3.84993       -2.17279
C          1.38639        3.63193        0.22146
N          0.13227        2.82315       -0.07145
C         -0.84750        3.67858       -0.83658
H          2.65881        7.01950       -2.90869
H          2.98243        4.64759       -4.05030
H          1.86076        6.55732       -0.39003
H          2.15370        2.97102        0.66623
H          1.18158        4.38276        1.02768
C         -0.47727        3.87513       -2.32513
C         -2.11341        2.91991       -0.91391
C         -1.18078        5.01862       -0.12308
H         -0.04928        2.93516       -2.74270
H         -1.34982        4.17114       -2.94103
H          0.13840        4.75373       -2.50091
H         -1.73294        1.94688       -1.18789
H         -2.68405        2.96166        0.01772
H         -2.82609        3.28867       -1.66359
H         -1.48538        4.82833        0.93333
H         -0.32660        5.71758       -0.09777
H         -2.00625        5.53323       -0.64756
Na         2.60086        1.50809       -2.44033
Mg         3.95455        0.50597        1.75950
C         -2.96626       -0.08450       -1.48505
C         -4.63784        0.66547       -0.03539
O         -3.22295        0.47725       -0.17508
C         -3.66440        0.55299       -2.74220
C         -5.41123       -0.67696        0.03844
H         -1.88445        0.01560       -1.69870
H         -3.14527       -1.15409       -1.45029
H         -4.88809        1.23498        0.86830
H         -5.04924        1.31041       -0.83520
H         -5.22584       -1.17940        1.00804
H         -6.49868       -0.49814       -0.08323
H         -5.14119       -1.38761       -0.77095
H         -3.49569        1.63602       -2.86215
H         -3.27020        0.08724       -3.66841
H         -4.75722        0.36802       -2.75418
H          3.91892        0.52765        4.32874
C          4.82206        2.45749        3.99618
C          4.63454        0.99586        3.61940
C          3.47732        3.18880        4.01624
H          5.26470        2.49448        5.01655
H          5.52498        2.93945        3.28387
H          3.01510        3.16806        3.00781
H          2.79342        2.68115        4.73267
C          3.65209        4.63530        4.46472
H          5.60211        0.46020        3.71802
H          4.10835        4.67104        5.47765
H          4.30303        5.18313        3.75077
H          2.66085        5.13358        4.50583
C          2.80647       -1.47907       -3.88864
C          3.10914       -2.81248       -3.71216
C          3.33512       -2.98678       -2.36077
C          3.16187       -1.74586       -1.77640
N          2.84811       -0.83374       -2.70787
C          3.38334       -1.41612       -0.33615
N          3.29122        0.02810       -0.05481
C          4.65892        0.70250       -0.36475
H          3.18044       -3.56473       -4.48598
H          2.60021       -0.99480       -4.83388
H          3.63212       -3.90468       -1.87199
H          4.38115       -1.85120       -0.13963
H          2.70644       -1.94862        0.34280
C          5.16370        0.62707       -1.84168
C          4.63257        2.21978       -0.02756
C          5.82774        0.12885        0.53911
H          4.57813        1.22081       -2.55848
H          6.16577        1.10290       -1.91968
H          5.29703       -0.40007       -2.21082
H          4.37351        2.40317        1.03113
H          5.64588        2.66227       -0.18473
H          3.95370        2.75612       -0.68297
H          6.03346        0.77218        1.41611
H          5.67211       -0.85784        1.00305
H          6.80027        0.09488        0.00109
