68
speciation53.ct
Na         1.85398        0.01373        0.91174
Mg         5.23010        2.93334       -0.16204
C         -0.45791       -0.76070       -1.64558
C          0.19014        1.50447       -1.76736
O          0.21361        0.30226       -0.95058
C          0.06125       -1.09493       -3.07080
C         -1.17513        2.05929       -2.22019
H         -0.38386       -1.67575       -1.03594
H         -1.54891       -0.54073       -1.71301
H          0.64380        2.34087       -1.22499
H          0.80116        1.36815       -2.66962
H         -1.81786        2.31899       -1.35872
H         -1.00066        2.99305       -2.80683
H         -1.71201        1.37403       -2.90692
H          1.12245       -1.39331       -3.05450
H         -0.51042       -1.94688       -3.49436
H         -0.07331       -0.25968       -3.79289
C          7.73392        3.77661        1.58972
C          7.99445        3.64192        2.93856
C          6.93230        2.99506        3.53541
C          5.97491        2.70580        2.58089
N          6.55824        3.21013        1.29383
C          4.56141        1.83604        3.35305
N          3.08260        1.14329        3.11439
C          1.84191        1.36668        4.08188
H          8.86772        3.99846        3.45465
H          8.36395        4.29074        0.87146
H          6.87091        2.74406        4.57740
H          5.12836        0.91464        3.63741
H          4.51370        2.26751        4.36680
C          0.80963        2.58742        3.85511
C          0.87415        0.14035        3.95965
C          2.24285        1.54443        5.55300
H          0.14534        2.55093        2.95949
H          1.29885        3.58584        3.87265
H          0.01564        2.62964        4.62182
H          1.30539       -0.80400        4.33215
H         -0.06564        0.31288        4.54478
H          0.51399       -0.01379        2.91792
H          1.43093        1.16369        6.21569
H          2.32939        2.62857        5.79915
H          3.17930        1.03117        5.80128
Na         2.95515       -0.96954        2.57597
C          3.83446        3.70702       -2.46043
C          3.25475        3.33339       -3.66352
C          3.00858        1.99258       -3.59705
C          3.42783        1.66892       -2.30272
N          3.90197        2.65656       -1.61791
C          3.27357        0.45874       -1.62412
N          2.54491        1.06383       -0.47740
C          3.20484        1.95489        0.55354
H          3.07326        3.96793       -4.54648
H          4.16578        4.69234       -2.26458
H          2.59592        1.33745       -4.35624
H          4.23549       -0.06738       -1.43893
H          2.68028       -0.26714       -2.19684
C          3.54073        3.65844        0.55710
C          1.91784        2.34438        1.27375
C          4.48709        0.95553        0.81625
H          2.68391        4.31771        0.27826
H          4.22887        4.31052       -0.02900
H          3.90724        3.97104        1.56013
H          1.21448        1.60222        1.58833
H          2.17035        2.97099        2.12381
H          1.22623        2.93084        0.66553
H          4.13303       -0.09479        0.91042
H          5.19576        1.00149       -0.03388
H          5.33957        0.79860        1.47388
