95
speciation1550.ct
Na         2.44060       -2.74849        2.36452
Mg         2.95659        7.17115        3.23899
C          3.85221        6.52058        0.52603
C          2.82794        8.65370        0.73299
O          2.90916        7.32302        1.22682
C          5.25914        7.12086        0.39971
C          2.31948        8.76496       -0.72587
H          3.94234        5.56479        1.08008
H          3.46194        6.24323       -0.48226
H          2.08992        9.20970        1.33553
H          3.78549        9.19414        0.85096
H          1.31209        8.31401       -0.82665
H          2.25464        9.83416       -1.00829
H          3.01251        8.27903       -1.44211
H          5.63355        7.42255        1.39274
H          5.94858        6.36341       -0.02802
H          5.27256        7.99439       -0.28835
H          1.11495        9.23356        3.31063
C          0.52742        8.27300        5.12849
C          1.06512        8.19686        3.70615
C          1.49566        9.03688        6.02375
H         -0.46149        8.79187        5.11711
H          0.37230        7.24406        5.51476
H          2.46629        8.50608        6.03214
H          1.65328       10.06297        5.62373
C          0.96246        9.13884        7.44817
H          0.29991        7.66619        3.09875
H          0.02602        9.73769        7.46717
H          0.75614        8.12762        7.85950
H          1.71896        9.63700        8.08686
C          4.52682        1.68750        2.65633
C          5.03426        0.50565        2.19303
C          4.27029       -0.49804        2.77987
C          3.30286        0.12636        3.52136
N          3.51786        1.47195        3.48223
C          2.19517       -0.54383        4.33252
N          2.25735       -2.01471        4.36283
C          1.10403       -2.71111        5.03736
H          5.87857        0.40061        1.52626
H          4.89069        2.68553        2.41200
H          4.40464       -1.54434        2.61147
H          1.22825       -0.20884        3.89014
H          2.32739       -0.21723        5.37292
C         -0.18990       -2.59636        4.21036
C          1.47943       -4.20225        5.14447
C          0.84399       -2.18378        6.46809
H         -0.05134       -3.01044        3.19000
H         -1.00718       -3.17317        4.70235
H         -0.54199       -1.54926        4.12704
H          2.40972       -4.32900        5.73536
H          0.66816       -4.77538        5.64837
H          1.63997       -4.63830        4.13788
H          1.75152       -2.27909        7.10032
H          0.51051       -1.12970        6.46294
H          0.02958       -2.77478        6.94592
Na         3.97172       -2.40650        5.57200
Mg         2.86855        3.11418        4.20392
H          4.76349        8.57014        5.06322
C          5.28275        9.93854        3.66282
C          4.83616        8.50447        3.95848
C          6.57142       10.28342        4.46245
H          5.46901       10.06090        2.57779
H          4.47098       10.62531        3.98407
H          6.40267       10.13177        5.55359
H          7.41108        9.61957        4.15545
C          6.99155       11.73576        4.26199
H          5.68938        7.84913        3.68235
H          7.22936       11.92282        3.19505
H          6.17506       12.41492        4.58662
H          7.89381       11.95852        4.87362
C          0.75575        1.82012        5.60770
C         -0.47598        1.66454        5.01373
C         -0.59672        2.67982        4.06430
C          0.58811        3.38506        4.13436
N          1.36737        2.76013        4.93579
C          1.24050        4.64131        3.50630
N          2.68079        4.98639        3.95735
C          3.44054        4.86476        5.31554
H         -1.14721        0.83974        5.20010
H          1.22590        1.17180        6.33179
H         -1.40613        2.82176        3.36538
H          0.57729        5.50720        3.70823
H          1.26335        4.48066        2.41262
C          4.22382        3.51576        5.62102
C          4.60796        5.81002        5.21588
C          2.65020        5.22008        6.59719
H          4.86846        3.24387        4.76272
H          4.90052        3.59260        6.49430
H          3.57839        2.65385        5.89822
H          4.12278        6.74890        5.34542
H          5.36150        5.72120        6.03235
H          5.14055        5.68265        4.24010
H          2.24796        6.24533        6.56995
H          1.83866        4.50461        6.81511
H          3.35033        5.18580        7.47531
