81
speciation598.ct
Na        -4.26103       -3.33175       -0.89692
Mg        -0.68686       -3.30272        3.32464
C         -1.15121       -6.01594        3.41939
C          1.02077       -5.54485        4.10554
O         -0.08140       -5.09770        3.33509
C         -2.31150       -5.54698        2.55306
C          2.27537       -4.70981        3.84530
H         -0.83508       -7.00045        3.00692
H         -1.50716       -6.12397        4.46785
H          0.77877       -5.53532        5.18970
H          1.29846       -6.57636        3.78929
H          2.14746       -3.66861        4.16022
H          3.12468       -5.13057        4.42181
H          2.55566       -4.71047        2.77461
H         -1.97066       -5.42793        1.50494
H         -3.12359       -6.30466        2.57082
H         -2.71533       -4.58354        2.92943
H         -0.06792       -3.29989        5.94283
C         -0.53690       -1.20631        6.03620
C         -0.00960       -2.42108        5.26560
C         -2.01128       -1.33657        6.40807
H          0.06272       -1.10129        6.97244
H         -0.38524       -0.29026        5.42646
H         -2.60646       -1.39711        5.47387
H         -2.17919       -2.25710        7.00983
C         -2.46910       -0.12763        7.22708
H          1.05871       -2.17931        5.11737
H         -1.94038       -0.09630        8.20531
H         -2.26264        0.81648        6.67883
H         -3.56008       -0.19559        7.41862
C         -3.66323       -0.27323       -1.24070
C         -3.08932        0.88829       -0.75938
C         -2.51303        0.56638        0.44160
C         -2.73349       -0.78288        0.63469
N         -3.46431       -1.30014       -0.38211
C         -2.21606       -1.52150        1.83170
N         -1.27994       -2.60360        1.49335
C         -0.01743       -2.29161        0.77227
H         -3.07361        1.86153       -1.23107
H         -4.19924       -0.35146       -2.17800
H         -1.95175        1.22981        1.09162
H         -1.72211       -0.82424        2.53984
H         -3.08203       -1.96346        2.36346
C          0.86996       -1.38684        1.64297
C          0.70020       -3.62652        0.51302
C         -0.22713       -1.66818       -0.62928
H          1.02273       -1.85237        2.63822
H          1.86031       -1.21772        1.17253
H          0.38978       -0.39693        1.79282
H          0.08263       -4.28387       -0.13784
H          1.68259       -3.46518        0.01756
H          0.88892       -4.15999        1.44551
H         -0.98936       -2.24298       -1.19965
H         -0.50766       -0.60435       -0.58546
H          0.71598       -1.68768       -1.21799
Mg        -2.27441       -3.78658        0.29670
C         -5.79822       -6.15119       -0.64160
C         -6.09148       -7.34403       -1.28023
C         -5.49014       -7.28528       -2.51491
C         -4.86403       -6.05676       -2.58012
N         -5.03344       -5.36497       -1.42665
C         -4.10259       -5.56269       -3.76551
N         -4.99769       -5.54671       -4.93502
C         -4.43563       -4.98519       -6.18400
H         -6.68033       -8.16864       -0.89556
H         -6.13020       -5.88474        0.35107
H         -5.51624       -8.04695       -3.28616
H         -3.73324       -4.54921       -3.52334
H         -3.24906       -6.24987       -3.94067
C         -3.24537       -5.82423       -6.69638
C         -5.54625       -5.02685       -7.25046
C         -4.01299       -3.51570       -5.98785
H         -3.55569       -6.87889       -6.86255
H         -2.87141       -5.41674       -7.66115
H         -2.39802       -5.81308       -5.98201
H         -6.43817       -4.45897       -6.90849
H         -5.19332       -4.57826       -8.20556
H         -5.85941       -6.07335       -7.45592
H         -4.87028       -2.92128       -5.60386
H         -3.16527       -3.42208       -5.28030
H         -3.67662       -3.07510       -6.94974
