96
speciation1614.ct
Na         5.42113       -1.41967       -0.12038
Mg         8.43409        5.18156       -0.41708
C          9.29736        7.05597       -2.14505
C         10.68389        7.33873       -0.24819
O          9.51498        6.74729       -0.78664
C         10.39212        6.70517       -3.13484
C         10.62795        8.87364       -0.28792
H          8.57833        6.34205       -2.45539
H          8.85416        8.06630       -2.26751
H         10.76446        7.06058        0.82341
H         11.59266        6.95650       -0.76152
H          9.76064        9.23961        0.30275
H         11.56115        9.30217        0.13063
H         10.53687        9.25330       -1.32803
H         10.65915        5.63076       -3.03230
H          9.96954        6.86196       -4.15348
H         11.27736        7.35267       -3.01645
H          9.53971        2.75654        0.15272
C         11.04162        3.99531        1.09431
C         10.00658        3.74876       -0.01660
C         10.40862        3.98235        2.49121
H         11.81387        3.19473        1.04884
H         11.55570        4.95987        0.92216
H          9.62916        4.76846        2.55775
H          9.93684        2.98929        2.67091
C         11.45921        4.22916        3.57364
H         10.55136        3.71035       -0.98474
H         12.24420        3.44555        3.54144
H         11.92652        5.23701        3.42432
H         10.98111        4.20532        4.57741
C          2.00603        3.54828       -0.98721
C          0.83866        2.86309       -1.17643
C          1.18834        1.55850       -1.34964
C          2.56579        1.52147       -1.24615
N          3.09112        2.76060       -1.16537
C          3.33214        0.27114       -1.04626
N          4.56451        0.55466       -0.30374
C          4.54403        1.03712        1.10667
H         -0.15431        3.28086       -1.15075
H          2.04626        4.60656       -0.77540
H          0.51704        0.71963       -1.46588
H          3.51241       -0.24618       -2.01081
H          2.70996       -0.44989       -0.48959
C          3.73769        0.07803        1.99217
C          5.98836        1.13825        1.56732
C          3.92199        2.43968        1.32692
H          4.14136       -0.95976        1.93167
H          3.75794        0.41834        3.04929
H          2.66976        0.06583        1.67717
H          6.54832        1.83299        0.90909
H          6.05662        1.53627        2.60928
H          6.49738        0.14805        1.53459
H          4.44867        3.13895        0.68113
H          2.83233        2.44342        1.17166
H          4.04608        2.77921        2.37688
Mg         5.11763        3.46727       -1.22404
C          5.94655        1.03742       -3.05397
C          7.90908        2.25765       -2.58398
O          6.45814        2.25129       -2.51145
C          6.61113       -0.26492       -2.50417
C          8.50543        2.01151       -4.02569
H          4.88844        1.05683       -2.84245
H          5.97213        1.03544       -4.16370
H          8.33228        3.20105       -2.23871
H          8.33964        1.49431       -1.90836
H          8.26784        2.83947       -4.72175
H          9.61522        1.91645       -3.96993
H          8.17522        1.06349       -4.50374
H          6.73111       -0.22520       -1.40499
H          6.02447       -1.16187       -2.78760
H          7.63157       -0.42774       -2.91451
C          3.04658        5.00581       -3.13112
C          3.39174        5.22675       -4.41303
C          4.78380        5.36668       -4.39629
C          5.17182        5.23301       -3.09629
N          4.16464        4.76903       -2.41719
C          6.39622        5.42587       -2.30735
N          6.37789        5.02088       -0.83654
C          5.85157        5.92041        0.26742
H          2.68448        5.27732       -5.22021
H          2.03199        4.87399       -2.86710
H          5.38733        5.48613       -5.29231
H          6.58847        6.50649       -2.40616
H          7.14395        4.82423       -2.84988
C          4.33528        6.11376        0.28024
C          6.25358        5.23410        1.61468
C          6.51935        7.29033        0.29239
H          3.80708        5.16241        0.35988
H          4.04366        6.69274        1.19171
H          3.99685        6.69467       -0.59214
H          7.35823        5.13181        1.71983
H          5.89680        5.82883        2.49442
H          5.85253        4.22520        1.75598
H          7.60812        7.21828        0.47849
H          6.31800        7.86335       -0.62507
H          6.12293        7.88843        1.15173
