81
speciation635.ct
Na         2.98412       -6.88487       -6.72141
Mg         7.97068       -0.81651       -1.95684
C          7.85651        1.04432       -0.08143
C         10.09666        0.90091       -0.87522
O          8.88589        0.20271       -0.57226
C          7.49421        2.20615       -1.01344
C         10.77366        1.53318        0.34944
H          6.95371        0.40515        0.00616
H          8.07180        1.39171        0.95069
H         10.83300        0.16571       -1.25530
H          9.95879        1.66367       -1.66702
H         11.01098        0.75567        1.10590
H         11.72398        2.01688        0.03275
H         10.14181        2.31987        0.80850
H          7.30811        1.82506       -2.03996
H          6.57880        2.70772       -0.63904
H          8.30019        2.96911       -1.03853
H          9.52580        0.57946       -3.65351
C          9.21893       -1.13625       -4.90626
C          9.42414       -0.52180       -3.53338
C          7.93521       -0.62801       -5.55905
H         10.08783       -0.86892       -5.55192
H          9.18136       -2.23892       -4.79612
H          7.07203       -0.87549       -4.90948
H          7.98404        0.47662       -5.68743
C          7.73872       -1.28241       -6.92285
H         10.39084       -0.91195       -3.15325
H          8.58162       -1.02455       -7.59999
H          7.68709       -2.38665       -6.81171
H          6.79205       -0.92388       -7.37671
C          2.11006       -6.12305       -9.68815
C          2.56400       -5.12170      -10.52398
C          3.54890       -4.43893       -9.83247
C          3.66121       -5.06014       -8.60451
N          2.78244       -6.07563       -8.52681
C          4.62349       -4.67293       -7.49218
N          4.59130       -5.61934       -6.34104
C          5.76025       -6.51233       -6.18368
H          2.21339       -4.90865      -11.52337
H          1.32973       -6.83847       -9.90985
H          4.12189       -3.59308      -10.18410
H          4.35162       -3.65905       -7.13230
H          5.63301       -4.60339       -7.93069
C          7.03602       -5.69390       -5.86483
C          5.46342       -7.43925       -4.99320
C          5.98434       -7.37806       -7.43887
H          6.86211       -5.01519       -5.00556
H          7.88153       -6.37187       -5.62089
H          7.36441       -5.07902       -6.72958
H          4.56205       -8.05191       -5.20630
H          6.31539       -8.12799       -4.80905
H          5.27444       -6.84686       -4.07390
H          5.07790       -7.97812       -7.66474
H          6.21727       -6.76145       -8.33256
H          6.83579       -8.07501       -7.28653
Mg         3.98242       -4.70222       -4.68325
C          2.17191       -3.90401       -2.43760
C          2.00072       -2.90593       -1.50096
C          3.14865       -2.13705       -1.52519
C          3.98241       -2.70713       -2.47009
N          3.37355       -3.78509       -3.02546
C          5.35398       -2.18906       -2.86728
N          6.28225       -2.02968       -1.71419
C          6.62112       -3.23363       -0.90779
H          1.12017       -2.73076       -0.90102
H          1.42894       -4.63953       -2.72271
H          3.34557       -1.24836       -0.93749
H          5.80876       -2.82944       -3.65045
H          5.21115       -1.18270       -3.31632
C          7.23508       -4.34647       -1.77863
C          7.64887       -2.79290        0.14484
C          5.41063       -3.80418       -0.12391
H          8.13417       -3.97379       -2.31144
H          7.52602       -5.21412       -1.14660
H          6.50097       -4.71567       -2.52421
H          7.22254       -1.99479        0.78834
H          7.93583       -3.64798        0.79733
H          8.56672       -2.40652       -0.34486
H          4.91166       -3.00292        0.46416
H          4.67324       -4.30878       -0.77152
H          5.73439       -4.59693        0.58130
