96
speciation1082.ct
Na         0.76276        0.15433        0.13561
Mg         2.21578        4.68589       -0.77729
C         -2.01996       -0.28132        1.35747
C         -2.09260       -0.29665       -1.02713
O         -1.55288        0.29618        0.14540
C         -1.85928       -1.80366        1.46828
C         -3.58050        0.00609       -1.21197
H         -1.41784        0.17007        2.17389
H         -3.06828        0.02389        1.55945
H         -1.57991        0.15383       -1.89800
H         -1.88605       -1.38400       -1.08593
H         -3.74283        1.10374       -1.25898
H         -3.93115       -0.44725       -2.16384
H         -4.18650       -0.42224       -0.38873
H         -0.80614       -2.09507        1.27400
H         -2.14097       -2.12829        2.49179
H         -2.53502       -2.33586        0.76674
H          4.32013        4.94115        0.88401
C          3.53747        6.87813        1.18145
C          3.78593        5.68639        0.26570
C          2.65796        6.49708        2.37639
H          4.52441        7.22676        1.56188
H          3.07128        7.70034        0.60101
H          1.66829        6.15882        2.02037
H          3.12443        5.66389        2.94725
C          2.46897        7.68614        3.31327
H          4.45726        6.00538       -0.54865
H          3.44861        8.00526        3.72985
H          2.00907        8.53792        2.76848
H          1.80313        7.39770        4.15337
C          3.86528       -1.11689        0.17094
C          5.20816       -0.80595        0.15380
C          5.28318        0.56949        0.09660
C          3.97665        1.01767        0.07865
N          3.12831        0.00942        0.12561
C          3.50566        2.40093        0.04752
N          2.75389        2.72526       -1.16396
C          1.43317        2.18583       -1.56192
H          6.03566       -1.50216        0.18268
H          3.44496       -2.11378        0.21878
H          6.18567        1.16527        0.07480
H          2.91892        2.63879        0.95764
H          4.41878        3.02210        0.03499
C          0.43454        2.51014       -0.42213
C          0.92123        2.96114       -2.79036
C          1.51314        0.73160       -2.16825
H          0.40942        3.60675       -0.25209
H         -0.59021        2.22410       -0.70283
H          0.71787        2.11800        0.56674
H          1.61091        2.87057       -3.65502
H         -0.08072        2.57896       -3.10030
H          0.77775        4.01276       -2.58592
H          2.24745        0.72597       -3.00326
H          1.78004       -0.15293       -1.59934
H          0.53447        0.43507       -2.59224
Mg         3.85384        2.39646       -2.78941
C          1.09323        6.61549       -2.72292
C          0.20129        6.69726       -0.49520
O          0.91603        5.96290       -1.46582
C          1.76333        7.98609       -2.64225
C         -1.26322        6.94454       -0.87075
H          1.74101        5.96891       -3.35009
H          0.12866        6.67651       -3.27167
H          0.16671        6.07171        0.41615
H          0.72483        7.63458       -0.22341
H         -1.78491        5.97933       -1.04836
H         -1.76665        7.47126       -0.03285
H         -1.35099        7.58361       -1.77329
H          2.73379        7.90019       -2.11363
H          1.93674        8.36969       -3.66920
H          1.11018        8.72054       -2.12516
C          6.45742        5.70136       -2.46984
C          7.33809        5.90818       -3.51016
C          6.94932        5.08946       -4.55107
C          5.86696        4.40047       -4.16594
N          5.49114        4.74742       -2.84919
C          5.13031        3.40433       -5.03343
N          4.95380        2.06766       -4.41486
C          6.15605        1.21952       -4.20132
H          8.17347        6.59365       -3.49633
H          6.50313        6.19692       -1.51045
H          7.42898        5.01570       -5.51550
H          5.59297        3.31506       -6.03076
H          4.11053        3.81429       -5.19072
C          7.12494        1.81063       -3.15243
C          5.66696       -0.13619       -3.67161
C          6.91756        0.98423       -5.52467
H          6.59344        2.02075       -2.20092
H          7.95195        1.09781       -2.94365
H          7.61953        2.73249       -3.50545
H          4.98747       -0.62050       -4.40381
H          6.52304       -0.82109       -3.48208
H          5.11039        0.00012       -2.72095
H          6.24449        0.53518       -6.28596
H          7.33206        1.93085       -5.92818
H          7.77652        0.29712       -5.36374
