96
speciation1040.ct
Na         0.96098        0.11631        0.11296
Mg        -4.38478       -2.79328        3.32835
C          0.88186        1.20598       -2.76319
C         -1.25665        1.20617       -1.70429
O          0.02882        0.60088       -1.78963
C          1.03352        2.73191       -2.65460
C         -2.12776        0.95911       -2.94795
H          1.88880        0.76249       -2.63182
H          0.57459        0.92318       -3.79591
H         -1.78787        0.75430       -0.84271
H         -1.19289        2.28962       -1.48075
H         -2.31123       -0.12652       -3.08921
H         -3.10741        1.46793       -2.82116
H         -1.66561        1.37176       -3.86879
H          1.28771        3.01501       -1.61332
H          1.84130        3.07948       -3.33312
H          0.10537        3.25470       -2.97248
H         -5.01724       -5.13433        2.48440
C         -3.12082       -4.61652        1.56110
C         -4.55242       -4.25508        1.99035
C         -3.13615       -5.73799        0.52170
H         -2.62238       -3.71458        1.14069
H         -2.53810       -4.94537        2.45193
H         -3.62344       -6.63866        0.95511
H         -3.71837       -5.40184       -0.36197
C         -1.72729       -6.11415        0.06757
H         -5.16219       -3.89295        1.14403
H         -1.21339       -5.23425       -0.37436
H         -1.12936       -6.49686        0.92220
H         -1.79116       -6.91102       -0.70416
C         -2.72865       -3.38278        5.08230
C         -1.64710       -3.39010        5.84879
C         -0.76247       -2.52038        5.23817
C         -1.34816       -1.92883        4.02764
N         -2.62224       -2.54071        4.01114
C         -0.38670       -0.82253        3.13298
N         -0.19681        0.46482        2.10031
C          0.16096        1.74894        2.75435
H         -1.56174       -3.98374        6.76258
H         -3.64359       -3.96567        5.30751
H          0.20995       -2.34221        5.65600
H          0.00180       -0.41326        4.05164
H          0.40550       -1.51746        2.78515
C          1.43968        1.65732        3.62619
C          0.42380        2.79151        1.65002
C         -1.01264        2.22865        3.60234
H          2.29335        1.30036        3.02817
H          1.68792        2.65562        4.04304
H          1.35525        1.00581        4.51449
H         -0.46837        2.92223        1.00164
H          0.67483        3.77880        2.09794
H          1.27700        2.47623        1.01184
H         -1.85913        2.34827        2.91759
H         -1.28478        1.49821        4.39094
H         -0.80024        3.20884        4.07926
Mg        -2.15330        0.38432        1.74569
C          4.07266        0.20154        0.56161
C          3.54630       -1.48926       -0.96815
O          3.03045       -0.57297       -0.01362
C          4.69742        1.19526       -0.42137
C          2.44850       -2.39971       -1.47830
H          3.63744        0.77455        1.39466
H          4.85809       -0.44060        1.02855
H          3.97669       -0.96763       -1.85078
H          4.31708       -2.14519       -0.49826
H          1.70208       -1.80586       -2.04388
H          2.89147       -3.16085       -2.15802
H          1.95822       -2.91492       -0.62770
H          3.89790        1.77674       -0.92351
H          5.37122        1.88963        0.12343
H          5.31273        0.67234       -1.18358
C         -4.54253       -1.09785        5.98520
C         -4.26238        0.23750        6.14383
C         -4.10668        0.75559        4.87132
C         -4.36284       -0.28622        3.95541
N         -4.54112       -1.37799        4.66460
C         -4.47403       -0.60511        2.44384
N         -4.10979        0.30383        1.39107
C         -4.89230        1.60647        1.32012
H         -4.12640        0.76886        7.07860
H         -4.61110       -1.81690        6.78738
H         -3.83858        1.78291        4.75085
H         -5.50133       -0.98423        2.26021
H         -3.78882       -1.43282        2.22319
C         -4.88765        2.46320        2.59525
C         -4.26413        2.49617        0.23533
C         -6.38617        1.37455        1.00137
H         -3.86664        2.69382        2.90126
H         -5.35727        3.45678        2.44241
H         -5.52125        2.00959        3.37882
H         -4.35555        2.03258       -0.76372
H         -4.76996        3.49009        0.19993
H         -3.19085        2.67837        0.46400
H         -6.52879        0.88709        0.02049
H         -6.87048        0.76321        1.79378
H         -6.93065        2.34894        0.99264
