110
speciation2594.ct
Na         2.95865        2.90134        2.60974
Mg         6.26732        3.20244       -1.03075
C          5.89094        2.66654        1.67026
C          8.14562        2.38927        0.84638
O          6.76192        2.34853        0.58781
C          6.06229        3.88848        2.56955
C          8.66511        1.29650        1.77429
H          4.91171        2.85925        1.20602
H          5.81002        1.77981        2.30338
H          8.63424        2.20859       -0.13825
H          8.45001        3.35699        1.26182
H          8.31847        0.28872        1.46772
H          9.77840        1.31048        1.72709
H          8.36744        1.50979        2.82051
H          6.13123        4.83155        1.99515
H          6.89090        3.76497        3.29151
H          5.12675        3.95432        3.18320
H          6.89361        2.78661       -3.67563
C          6.52447        0.73840       -3.09190
C          7.13728        2.13182       -2.81145
C          6.95025        0.10705       -4.44436
H          6.77157        0.04670       -2.26032
H          5.42394        0.87524       -3.13041
H          6.69179        0.80387       -5.27085
H          8.04565       -0.08652       -4.48207
C          6.20799       -1.21473       -4.70602
H          8.24463        2.05558       -2.74192
H          6.52237       -1.99858       -3.98460
H          5.10927       -1.06956       -4.62090
H          6.41971       -1.58534       -5.73400
C          3.28168        3.15313       -2.14410
C          2.00063        2.62591       -2.10646
C          1.97069        1.73322       -1.07456
C          3.23550        1.72758       -0.51492
N          4.07334        2.64561       -1.15676
C          3.55293        0.71416        0.59115
N          2.74217        0.92334        1.82792
C          2.93989       -0.04617        2.95059
H          1.17491        2.83287       -2.78001
H          3.59275        3.85882       -2.89920
H          1.12044        1.11429       -0.79498
H          4.62507        0.70403        0.79454
H          3.32256       -0.28574        0.16958
C          4.40144       -0.12071        3.43437
C          2.09672        0.42152        4.15988
C          2.46856       -1.46255        2.56121
H          4.71888        0.85559        3.85133
H          4.49912       -0.85465        4.26412
H          5.08634       -0.45733        2.63077
H          1.01470        0.45190        3.91592
H          2.23286       -0.26299        5.02896
H          2.40759        1.43694        4.48865
H          1.38836       -1.46223        2.30448
H          3.04534       -1.86620        1.70723
H          2.61256       -2.16418        3.41389
Na         0.64685        0.72941        1.39679
Mg         9.72958        9.44664       -0.38155
C          8.18706       11.31201        1.46715
C          9.45854        9.89608        2.80277
O          8.73800        9.99330        1.53362
C          7.10307       11.52135        0.41035
C          8.68747       10.25859        4.14369
H          7.59133       11.55734        2.36099
H          9.00148       12.06317        1.39596
H          9.79114        8.84840        2.95859
H         10.35907       10.54563        2.77627
H          7.85441        9.56041        4.37986
H          9.38670       10.23259        5.00937
H          8.28799       11.29486        4.22925
H          6.09335       11.43108        0.86981
H          7.15646       12.57980        0.06334
H          7.13072       10.79099       -0.41524
H         10.58281       12.27429       -0.50632
C         11.42568       12.23059       -2.48105
C         10.96109       11.47197       -1.17312
C         10.44964       13.14155       -3.27950
H         12.27141       12.91468       -2.21681
H         11.85747       11.49077       -3.18806
H         11.00873       13.47520       -4.18695
H          9.55060       12.59845       -3.63553
C         10.05704       14.44224       -2.55874
H         11.93006       11.14908       -0.73046
H         10.94417       14.92685       -2.09458
H          9.64624       15.17358       -3.29483
H          9.28751       14.25710       -1.78504
C         10.73265        7.40244       -2.78415
C         10.67733        6.12931       -3.34004
C          9.93252        5.35660       -2.50537
C          9.54209        6.17404       -1.47096
N         10.03656        7.48642       -1.62555
C          8.62490        5.64523       -0.41502
N          7.21703        5.33100       -0.91407
C          6.61077        6.53811       -1.58362
H         11.11737        5.75930       -4.28040
H         11.23294        8.21519       -3.25488
H          9.68951        4.32499       -2.64357
H          8.59234        6.34594        0.43165
H          9.13844        4.73935       -0.04386
C          7.08060        6.77019       -3.05281
C          5.10827        6.31691       -1.65520
C          6.84951        7.84960       -0.76184
H          6.89532        5.88638       -3.68196
H          6.54701        7.64140       -3.47623
H          8.12347        7.08085       -3.19113
H          4.67945        6.25869       -0.62986
H          4.62525        7.12719       -2.21267
H          4.94918        5.36498       -2.17115
H          6.47551        7.74528        0.28609
H          7.90887        8.16857       -0.69482
H          6.32889        8.70611       -1.23791
