110
speciation2055.ct
Na         4.80770        4.21838       -3.44518
Mg         2.18375        4.90475       -1.11159
C          5.33459        4.57532       -6.42573
C          3.03664        4.96730       -5.95507
O          4.17743        4.14471       -5.67671
C          5.50145        6.07147       -6.81646
C          2.48577        4.85643       -7.39715
H          6.22339        4.29688       -5.82877
H          5.39535        4.01326       -7.37460
H          2.21096        4.66854       -5.28223
H          3.24821        6.02813       -5.73213
H          1.99994        3.88004       -7.58478
H          1.70945        5.63342       -7.55652
H          3.26558        5.00356       -8.17013
H          5.33348        6.77467       -6.01283
H          6.52912        6.24180       -7.19886
H          4.79154        6.40557       -7.58909
H          0.89110        6.13244        0.98450
C          2.23905        4.86154        2.11633
C          1.32798        5.12130        0.90063
C          1.47210        4.97368        3.44243
H          2.68539        3.85152        2.05982
H          3.06370        5.58376        2.12141
H          0.86906        5.90607        3.46679
H          0.78805        4.10152        3.52893
C          2.41923        5.01698        4.64440
H          0.45726        4.44704        0.95800
H          3.11962        4.15580        4.64604
H          3.00751        5.96112        4.62323
H          1.82867        5.00273        5.58531
C          6.42710        5.04505       -0.59249
C          6.52355        4.81348        0.76062
C          5.62519        3.84672        1.04058
C          4.98751        3.53790       -0.13001
N          5.45155        4.29363       -1.16555
C          3.98564        2.43745       -0.19311
N          2.93997        2.72540       -1.16069
C          1.90020        1.66296       -1.27442
H          7.24943        5.26699        1.44069
H          7.07564        5.77064       -1.07708
H          5.48766        3.37895        2.01318
H          4.52732        1.50161       -0.50427
H          3.57926        2.24669        0.81976
C          1.13344        1.47483        0.05536
C          0.92971        2.15262       -2.32584
C          2.45966        0.30324       -1.77909
H          0.83916        2.45244        0.45583
H          0.21406        0.86941       -0.07640
H          1.76604        0.98335        0.82203
H          1.44483        2.38641       -3.28459
H          0.09428        1.44471       -2.50825
H          0.50137        3.02712       -1.88101
H          3.43286        0.41814       -2.28969
H          2.56833       -0.43080       -0.95507
H          1.77693       -0.17371       -2.52103
Na         4.24996        2.33381       -3.09653
Mg         7.20976       -0.38690       -1.79705
C          3.70405        7.71646       -0.98556
C          3.96413        6.52701       -2.90410
O          3.63066        6.38705       -1.51889
C          3.29670        7.83171        0.44572
C          5.50085        6.67520       -3.12991
H          4.76825        8.02717       -0.94966
H          3.12170        8.46855       -1.56485
H          3.48187        5.70960       -3.45547
H          3.47778        7.40386       -3.38297
H          6.07304        5.78162       -2.90741
H          5.80706        6.84115       -4.14062
H          5.93867        7.54088       -2.60511
H          3.90258        7.12383        1.03092
H          3.53223        8.85718        0.80064
H          2.21176        7.69233        0.52866
H          0.79825        5.13271       -3.55083
C         -0.42528        6.66376       -2.67177
C          0.42282        5.39858       -2.54455
C          0.24883        7.92788       -3.19965
H         -1.27752        6.44441       -3.36225
H         -0.86573        6.88022       -1.67486
H         -0.54521        8.70213       -3.16253
H          1.07650        8.25209       -2.54170
C          0.70907        7.84079       -4.65920
H         -0.40015        4.70121       -2.29808
H          0.79197        8.87098       -5.06748
H         -0.01527        7.28077       -5.28847
H          1.69864        7.36356       -4.74583
C          8.60570        2.24227       -1.69402
C          8.84037        3.36368       -2.46447
C          8.17508        3.17283       -3.65854
C          7.56992        1.94115       -3.56190
N          7.83128        1.37622       -2.36673
C          6.79487        1.23797       -4.62192
N          5.55996        1.94223       -5.03237
C          4.79611        1.10785       -6.06454
H          9.44152        4.21687       -2.18907
H          8.99408        2.05503       -0.70279
H          8.16305        3.84324       -4.50615
H          6.54774        0.24731       -4.19598
H          7.47859        1.10832       -5.48139
C          4.40953       -0.29443       -5.53206
C          3.44841        1.73399       -6.46294
C          5.60479        0.94794       -7.38118
H          3.81731       -0.20415       -4.59933
H          3.78114       -0.83037       -6.28267
H          5.28069       -0.95629       -5.37695
H          3.62829        2.55796       -7.15993
H          2.82754        1.05511       -7.08503
H          2.84559        2.02212       -5.57459
H          5.90424        1.93808       -7.77910
H          6.51853        0.34089       -7.25931
H          4.98952        0.45565       -8.16823
