110
speciation2351.ct
Na         1.15921        0.14557       -0.76291
Mg        -2.15087        1.98691       -0.04025
C          0.17081       -1.73247       -3.45023
C         -1.04194       -2.02425       -1.54298
O          0.11906       -1.39664       -2.06697
C          1.50247       -1.38412       -4.06538
C         -1.20261       -1.66475       -0.10565
H          0.07309       -2.83940       -3.58424
H         -0.64403       -1.22492       -4.01834
H         -1.96608       -1.69008       -2.07343
H         -0.94802       -3.13360       -1.58021
H         -1.35929       -0.57076       -0.09346
H         -2.08793       -2.16783        0.33730
H         -0.28950       -1.96868        0.44859
H          2.31566       -1.89411       -3.51214
H          1.50449       -1.75119       -5.12184
H          1.64975       -0.29023       -4.06547
H         -2.18591        3.42855        2.18621
C         -4.17147        4.09016        1.72460
C         -2.78238        3.64118        1.27510
C         -4.89615        3.00375        2.51106
H         -4.05846        4.98642        2.37495
H         -4.76505        4.40534        0.84455
H         -4.99891        2.10470        1.88403
H         -4.30764        2.73647        3.41513
C         -6.28396        3.47587        2.93443
H         -2.33634        4.53574        0.80325
H         -6.20392        4.36105        3.60030
H         -6.88764        3.75068        2.04341
H         -6.80387        2.66091        3.47941
C          0.68365        1.43404        4.20084
C          0.16728        0.29527        3.64095
C         -0.03708        0.58451        2.31199
C          0.36760        1.87945        2.10148
N          0.79854        2.38615        3.26013
C          0.42818        2.70313        0.84890
N         -0.08844        2.07896       -0.39087
C          0.05012        3.00030       -1.56730
H         -0.02127       -0.64721        4.13746
H          0.98424        1.55710        5.23248
H         -0.40339       -0.09314        1.61327
H          1.49414        2.95118        0.73523
H         -0.11880        3.63268        1.07248
C          1.51255        3.47038       -1.78401
C         -0.39354        2.25710       -2.83419
C         -0.84584        4.25653       -1.44594
H          2.18590        2.60055       -1.88085
H          1.59467        4.09008       -2.70345
H          1.87535        4.12983       -0.96605
H         -1.45070        1.93666       -2.75256
H         -0.30915        2.92980       -3.72281
H          0.24520        1.37314       -3.01216
H         -1.91257        3.96996       -1.35394
H         -0.55473        4.90480       -0.58869
H         -0.75008        4.90467       -2.34172
Na         3.07879        1.72191        1.64829
Mg         1.57875        4.19345        3.55172
C          3.67847        5.69259        4.24055
C          1.72696        6.94226        4.66338
O          2.33935        5.95535        3.83598
C          4.30612        4.58395        3.40148
C          1.85093        6.74373        6.18912
H          4.30423        6.60548        4.13008
H          3.72254        5.30048        5.27833
H          2.14250        7.94107        4.39903
H          0.64958        6.97564        4.40802
H          2.90149        6.84719        6.53722
H          1.28137        7.54001        6.71228
H          1.45159        5.75365        6.49005
H          4.34705        4.86493        2.33080
H          5.34334        4.40281        3.76404
H          3.73797        3.63612        3.52003
H         -3.53762        0.82510       -2.11380
C         -5.19696        0.82460       -0.74051
C         -3.69602        0.72574       -1.01991
C         -5.75730        2.17351       -1.18323
H         -5.73312        0.01906       -1.29236
H         -5.37340        0.65152        0.33826
H         -5.19000        2.97544       -0.68858
H         -5.63534        2.29203       -2.28171
C         -7.23449        2.30877       -0.82088
H         -3.42633       -0.30960       -0.74970
H         -7.83831        1.54186       -1.35013
H         -7.37680        2.18559        0.27354
H         -7.59835        3.31654       -1.11284
C          4.57185       -0.48387        4.47909
C          5.26506       -1.61296        4.09734
C          4.81539       -1.96101        2.83177
C          3.88495       -1.07610        2.45039
N          3.68335       -0.09667        3.46112
C          3.13824       -1.08194        1.13312
N          3.33580        0.11502        0.27582
C          4.75780        0.34571       -0.21253
H          6.01693       -2.11164        4.69092
H          4.67688        0.04435        5.42150
H          5.17247       -2.80595        2.24119
H          2.06785       -1.14160        1.39309
H          3.34432       -2.01237        0.57051
C          5.36732       -0.86860       -0.98475
C          4.79624        1.55668       -1.16302
C          5.72522        0.74787        0.94738
H          5.16944       -0.80995       -2.07640
H          6.47480       -0.89150       -0.86862
H          5.02601       -1.85676       -0.64150
H          4.44110        2.47960       -0.65719
H          5.84002        1.74406       -1.51509
H          4.17533        1.37040       -2.06181
H          5.35601        1.63924        1.49827
H          5.95460       -0.04990        1.65965
H          6.72816        1.01974        0.54794
