96
speciation1355.ct
Na         1.05279        0.02889       -0.07987
Mg         3.98847       -1.28028        1.09284
C         -2.03602        1.12956        0.37181
C         -1.85506       -1.17261        0.38350
O         -1.26721        0.02889       -0.07987
C         -1.48062        2.44193       -0.15801
C         -0.99927       -2.37042        0.00029
H         -3.07437        1.05026       -0.03036
H         -2.06338        1.17423        1.48317
H         -1.96872       -1.17083        1.49163
H         -2.84568       -1.31725       -0.10650
H         -0.00541       -2.30678        0.48982
H         -1.50456       -3.30165        0.33838
H         -0.87016       -2.41719       -1.10150
H         -1.47347        2.44161       -1.26855
H         -2.13158        3.27490        0.18898
H         -0.45307        2.60737        0.22442
H          1.73035       -0.46031        2.43359
C          2.74085       -0.63658        4.33488
C          2.56170       -1.06729        2.85455
C          3.14123        0.83164        4.55122
H          1.76782       -0.79430        4.86007
H          3.49318       -1.29652        4.81451
H          4.11824        1.02328        4.06295
H          2.37542        1.50772        4.11113
C          3.26233        1.15234        6.04979
H          2.19340       -2.11272        2.89765
H          2.28642        1.01890        6.56784
H          4.01216        0.49206        6.53571
H          3.58436        2.20712        6.19481
C          6.32550        2.47510        2.03966
C          5.60874        3.66438        2.00728
C          4.45532        3.39198        1.34579
C          4.50576        2.05268        1.01413
N          5.66600        1.47364        1.42443
C          3.36479        1.46782        0.26712
N          3.42279        0.02889       -0.07987
C          3.67308       -0.21587       -1.50713
H          5.90695        4.63188        2.40022
H          7.27269        2.38078        2.49864
H          3.66595        4.09073        1.10475
H          2.43581        1.64188        0.84360
H          3.27203        2.11198       -0.62505
C          5.13539        0.22799       -1.76262
C          3.36323       -1.69330       -1.71436
C          2.68393        0.48222       -2.48978
H          5.79089       -0.20126       -0.98579
H          5.49979       -0.00868       -2.78514
H          5.25569        1.32152       -1.62040
H          2.29987       -1.92199       -1.49301
H          3.53360       -1.99880       -2.76919
H          3.91446       -2.28561       -0.98930
H          1.64574        0.11516       -2.32406
H          2.63573        1.58361       -2.47445
H          2.96074        0.21656       -3.53311
Mg         6.55437       -0.40043        1.26584
C          8.83579       -0.45580        3.25770
C          9.37933       -0.39130        0.92152
O          8.37706       -0.52017        1.90591
C          9.61074        0.82506        3.61632
C         10.47034       -1.47596        1.00518
H          7.95654       -0.52758        3.93508
H          9.45409       -1.34799        3.49662
H          8.87466       -0.48801       -0.06202
H          9.81699        0.62926        0.91756
H         10.04640       -2.49803        1.01708
H         11.14892       -1.38397        0.13256
H         11.07815       -1.37030        1.92433
H          8.98960        1.72339        3.49743
H          9.93388        0.78453        4.67736
H         10.52654        0.94154        3.00307
C          3.03785       -5.15904        2.37531
C          3.46224       -5.04508        3.67195
C          4.46821       -4.09729        3.68901
C          4.65467       -3.67709        2.43866
N          3.75813       -4.27074        1.56636
C          5.73000       -2.66037        2.07502
N          5.71980       -2.19484        0.68012
C          6.30500       -3.15052       -0.40057
H          3.08958       -5.61303        4.52278
H          2.27612       -5.85274        2.01524
H          5.01875       -3.76458        4.56255
H          6.73268       -2.97643        2.39957
H          5.49658       -1.75854        2.68900
C          5.49757       -4.47605       -0.58128
C          6.42904       -2.57736       -1.85862
C          7.74688       -3.51694       -0.08674
H          4.43715       -4.31919       -0.86710
H          5.91649       -5.08247       -1.41684
H          5.56005       -5.13394        0.30417
H          7.02169       -1.64801       -1.92212
H          6.97724       -3.29336       -2.51159
H          5.51623       -2.49292       -2.43869
H          8.36243       -2.61924       -0.24624
H          7.89381       -3.92637        0.91809
H          8.12167       -4.28500       -0.80240
