110
speciation2649.ct
Na         1.82430        1.51547       -0.12328
Mg        -0.11545        3.47934        4.80103
C         -0.08166        0.80253        5.55464
C         -0.25231        2.23735        7.44366
O          0.20538        2.07331        6.10786
C         -1.56753        0.42181        5.51652
C          0.46962        1.34020        8.45441
H          0.28084        0.86125        4.52659
H          0.53074        0.00458        6.02246
H         -0.03143        3.27487        7.76001
H         -1.34155        2.09633        7.52654
H          1.54657        1.60360        8.50672
H          0.01437        1.49121        9.45622
H          0.36356        0.26492        8.20894
H         -2.14841        1.20083        4.98418
H         -1.69180       -0.53871        4.97497
H         -1.97503        0.26757        6.53747
H          1.02968        3.07933       -3.85732
C          0.41964        2.34904       -5.77375
C          1.11196        2.13498       -4.43770
C          0.59499        1.13509       -6.68605
H         -0.65397        2.56679       -5.60567
H          0.89079        3.23364       -6.26558
H          1.67857        0.93334       -6.84696
H          0.13260        0.24553       -6.20890
C         -0.05722        1.38773       -8.04107
H          2.18093        1.99409       -4.70425
H         -1.14229        1.58376       -7.91069
H          0.41355        2.26386       -8.53850
H          0.07415        0.49809       -8.69099
C          0.50152       -0.64781        1.91133
C          0.33687       -2.01730        1.96036
C          0.82017       -2.51233        0.77145
C          1.25495       -1.41851        0.06084
N          1.09353       -0.28326        0.76157
C          1.84006       -1.42752       -1.28441
N          2.17521       -0.03866       -1.64683
C          3.50660        0.12487       -2.27859
H         -0.08504       -2.58993        2.77413
H          0.22316        0.04550        2.66402
H          0.86197       -3.54865        0.46142
H          1.11431       -1.82891       -2.01919
H          2.70305       -2.10183       -1.25371
C          3.48455       -0.55869       -3.65945
C          3.77515        1.62916       -2.37557
C          4.69876       -0.42992       -1.44497
H          2.60946       -0.23057       -4.25489
H          4.41496       -0.35240       -4.22734
H          3.39957       -1.66037       -3.53529
H          3.92546        2.03291       -1.35324
H          4.68134        1.85602       -2.97662
H          2.92070        2.17838       -2.76463
H          4.74790        0.05637       -0.44624
H          4.69217       -1.52290       -1.29717
H          5.65177       -0.21277       -1.97809
Na         2.52624        2.01253        2.96394
Mg         0.70023        0.56244       -2.94035
C         -2.22644        4.83316        6.14491
C         -2.64263        4.59660        3.80634
O         -1.67369        4.65834        4.84566
C         -3.34236        3.84728        6.52562
C         -3.37959        5.93229        3.61656
H         -1.39683        4.70693        6.85816
H         -2.55844        5.88146        6.30018
H         -2.12103        4.38120        2.85467
H         -3.35852        3.76181        3.94989
H         -2.65677        6.74395        3.38843
H         -4.10082        5.84880        2.77625
H         -3.95902        6.21073        4.52157
H         -3.03651        2.80907        6.31415
H         -3.57123        3.93942        7.60769
H         -4.27641        4.05908        5.96649
H         -2.01431        0.96816       -3.27763
C         -2.21020       -0.44172       -1.63850
C         -1.46159        0.08977       -2.88110
C         -2.30702        0.58921       -0.50618
H         -3.24764       -0.72133       -1.93848
H         -1.70187       -1.35788       -1.26933
H         -1.28615        0.88263       -0.19078
H         -2.84925        1.49271       -0.86322
C         -3.05872        0.02313        0.70548
H         -1.52467       -0.70574       -3.65463
H         -4.10826       -0.23020        0.43874
H         -2.55556       -0.89094        1.08664
H         -3.08032        0.77654        1.52232
C          2.77100        4.49728       -0.79437
C          2.72726        5.82945       -0.43979
C          1.95561        5.89578        0.68895
C          1.59505        4.59160        1.00860
N          2.08088        3.73448        0.07631
C          0.70643        4.22203        2.17344
N          1.38093        3.76210        3.41473
C          2.28815        4.70143        4.13340
H          3.19714        6.66005       -0.95545
H          3.29647        4.15212       -1.67137
H          1.70704        6.79811        1.22990
H          0.03776        5.07454        2.39563
H          0.04099        3.40728        1.81843
C          1.57097        6.02878        4.45240
C          2.67553        4.04414        5.46962
C          3.62120        4.94743        3.38688
H          0.64082        5.82794        5.02445
H          2.21705        6.69277        5.06421
H          1.30027        6.58060        3.53223
H          3.19662        3.07689        5.29896
H          3.35474        4.70543        6.05211
H          1.78491        3.87145        6.09641
H          4.10081        3.98368        3.11314
H          3.52488        5.55775        2.48690
H          4.32777        5.51673        4.02917
