81
speciation380.ct
Na         1.27019        1.63417        0.16223
Mg         3.42939       -0.11187       -1.65555
C          2.18692        3.87079        2.48710
C          1.18459        2.01022        3.53692
O          1.28262        2.76719        2.30584
C          3.61732        3.51842        2.94955
C          0.59544        2.70831        4.73712
H          2.21875        4.43992        1.54851
H          1.78648        4.63328        3.18433
H          0.57744        1.08243        3.39265
H          2.18527        1.67649        3.86364
H         -0.50188        2.74695        4.63518
H          0.89902        2.12871        5.64124
H          1.01444        3.71048        4.87713
H          4.03712        2.71802        2.36398
H          4.28356        4.39424        2.83994
H          3.67454        3.18084        4.00522
H          4.32027        0.86467       -3.89739
C          4.48060       -1.26087       -4.14203
C          4.61679       -0.01270       -3.30455
C          5.35951       -1.16194       -5.39051
H          4.76326       -2.12854       -3.52052
H          3.41243       -1.35808       -4.44989
H          5.00647       -0.29163       -5.99010
H          6.42525       -0.98377       -5.12492
C          5.28400       -2.44474       -6.21775
H          5.65506        0.13427       -2.94610
H          4.29279       -2.93977       -6.11966
H          6.03982       -3.16797       -5.85590
H          5.51388       -2.22485       -7.28333
C         -1.78337        0.71840        0.16012
C         -2.36875       -0.52475        0.09297
C         -1.33889       -1.44646        0.03160
C         -0.15488       -0.72130        0.04042
N         -0.44255        0.59199        0.13351
C          1.26630       -1.30799       -0.04218
N          2.34218       -0.27195       -0.06932
C          3.38390       -0.34723        0.98141
H         -3.43360       -0.72231        0.08864
H         -2.32312        1.65855        0.22073
H         -1.45324       -2.52116       -0.02027
H          1.33883       -1.90584       -0.96993
H          1.38361       -2.00646        0.81173
C          4.20062       -1.63486        1.01991
C          4.32159        0.84387        0.71843
C          2.73652       -0.21237        2.32243
H          4.72663       -1.78096        0.06216
H          4.94533       -1.56750        1.85251
H          3.54420       -2.50086        1.23910
H          3.71643        1.76660        0.58039
H          5.06866        0.96865        1.53756
H          4.87310        0.72224       -0.22994
H          2.06262        0.56259        2.05039
H          2.10912       -1.06136        2.66480
H          3.46095        0.04726        3.12823
Mg         3.27108        3.27016       -1.96431
C          1.67154        3.10965       -6.55158
C          2.91691        3.39801       -6.04464
C          2.97932        2.86043       -4.76636
C          1.81094        2.26141       -4.49199
N          0.94635        2.35214       -5.61301
C          1.37516        1.65660       -3.15103
N          1.44279        2.61417       -1.98081
C          0.51771        3.78699       -2.05987
H          3.67799        3.98546       -6.54581
H          1.29284        3.43832       -7.51335
H          3.81167        2.98028       -4.09158
H          1.98908        0.76175       -2.95296
H          0.35972        1.23369       -3.28608
C         -0.94306        3.33723       -2.20274
C          0.63371        4.60681       -0.75941
C          0.84876        4.73389       -3.23436
H         -1.24318        2.78041       -1.30813
H         -1.61378        4.20792       -2.33488
H         -1.09096        2.70649       -3.09064
H          1.66363        4.98835       -0.59049
H         -0.04377        5.49052       -0.79573
H          0.32260        4.00593        0.12384
H          1.90837        5.07252       -3.22545
H          0.61021        4.27381       -4.18999
H          0.17845        5.61435       -3.24219
