66
speciation247.ct
Na         1.83964        0.08631        0.35032
Li         4.88020        5.02311        1.82970
H          6.68657        5.89702        3.52177
C          7.73642        4.58907        2.15242
C          6.53045        4.91589        3.02418
C          7.94903        5.69446        1.11039
H          8.63866        4.50603        2.79679
H          7.56241        3.61631        1.64440
H          7.04283        5.78924        0.47255
H          8.12128        6.66415        1.62843
C          9.15227        5.40020        0.21977
H          6.37728        4.13867        3.80202
H         10.07556        5.31586        0.83189
H          8.99553        4.45408       -0.34015
H          9.28565        6.22747       -0.50955
C          2.84160        6.30442        0.16987
C          1.60244        6.15569       -0.41748
C          1.25783        4.83214       -0.26384
C          2.31551        4.22975        0.39371
N          3.27040        5.12771        0.66450
C          2.39053        2.80029        0.78068
N          2.02892        1.96064       -0.36194
C          2.87205        1.82795       -1.56007
H          1.00459        6.93128       -0.87652
H          3.38164        7.23652        0.27031
H          0.33930        4.36102       -0.58855
H          1.61575        2.64140        1.56040
H          3.37150        2.52330        1.21961
C          4.25732        1.29216       -1.18720
C          2.12437        0.83258       -2.46489
C          3.02684        3.13959       -2.34918
H          4.15385        0.35589       -0.63079
H          4.86124        1.09461       -2.09652
H          4.80653        2.01962       -0.55230
H          1.13286        1.24400       -2.75504
H          2.70223        0.59258       -3.38008
H          1.89868       -0.10365       -1.92912
H          2.02974        3.54731       -2.62394
H          3.59702        3.89891       -1.78300
H          3.59093        2.94878       -3.28682
Li         1.31242        0.15032        0.10727
C         -1.70183        0.69383        0.44197
C         -2.75408       -0.19962        0.43539
C         -2.20291       -1.45894        0.25075
C         -0.84258       -1.26838        0.14691
N         -0.55755        0.02214        0.26603
C          0.24079       -2.26874       -0.14449
N          1.51300       -1.89999        0.53423
C          2.69440       -2.73381        0.11623
H         -3.80401        0.04300        0.53632
H         -1.77125        1.77127        0.55356
H         -2.73731       -2.39526        0.17238
H         -0.10644       -3.29289        0.08326
H          0.38215       -2.15934       -1.23525
C          3.01621       -2.64467       -1.39793
C          3.94435       -2.28215        0.90043
C          2.46193       -4.21853        0.47861
H          3.32839       -1.63065       -1.69387
H          3.87497       -3.30487       -1.64926
H          2.17894       -2.98670       -2.03863
H          3.79478       -2.40086        1.99230
H          4.83164       -2.88701        0.60187
H          4.19048       -1.22752        0.72068
H          2.30972       -4.32841        1.57189
H          1.59281       -4.64827       -0.05409
H          3.34616       -4.82902        0.18775
