110
speciation2289.ct
Na         0.97575        1.47588        0.39452
Mg         3.56428       -0.53934       -1.39769
C         -0.70871        2.08248        3.42670
C          1.38351        3.03654        3.58328
O          0.54544        2.22503        2.73575
C         -1.63636        1.11065        2.77589
C          1.84320        2.38626        4.93122
H         -0.60707        1.64676        4.44121
H         -1.23691        3.06045        3.48798
H          0.85709        3.98917        3.83075
H          2.29076        3.34070        3.03258
H          2.52322        1.52909        4.76923
H          2.37807        3.14527        5.54335
H          1.02790        2.04868        5.60608
H         -1.20369        0.08513        2.75843
H         -2.60749        1.07817        3.31692
H         -1.81396        1.54080        1.79896
H          2.16226       -1.52256       -3.37268
C          3.92807       -1.71389       -4.59441
C          3.13353       -0.99777       -3.48213
C          4.38033       -3.13310       -4.22456
H          3.27686       -1.76471       -5.49807
H          4.82183       -1.11580       -4.86007
H          5.07962       -3.07149       -3.36467
H          3.50961       -3.76281       -3.93922
C          5.10089       -3.80524       -5.40197
H          2.92879        0.02358       -3.85886
H          4.40515       -3.95105       -6.25723
H          5.95968       -3.18814       -5.74365
H          5.48781       -4.80100       -5.09653
C         -1.98066        0.32176       -0.23994
C         -2.46700       -0.95706       -0.39222
C         -1.37575       -1.79903       -0.35896
C         -0.26692       -0.99547       -0.16736
N         -0.64540        0.28780       -0.05087
C          1.16701       -1.48343       -0.10719
N          2.16348       -0.40399        0.16784
C          2.89110       -0.58095        1.44749
H         -3.50523       -1.23862       -0.50567
H         -2.58156        1.22117       -0.21153
H         -1.39326       -2.87645       -0.45233
H          1.40219       -1.93374       -1.09283
H          1.21376       -2.31629        0.61551
C          3.79312       -1.83546        1.41408
C          3.75411        0.66844        1.65003
C          1.92747       -0.69756        2.64507
H          4.44268       -1.83683        0.51655
H          4.42823       -1.87790        2.32444
H          3.19361       -2.76938        1.40626
H          3.12522        1.57783        1.71935
H          4.37571        0.58754        2.56685
H          4.42063        0.80938        0.79621
H          1.19501        0.10273        2.59324
H          1.34383       -1.63697        2.65222
H          2.47458       -0.63693        3.60856
Na         1.52060        7.75329        0.59262
Mg         0.89985        6.86404       -2.42994
C          3.38045        9.18120        2.70085
C          1.28906       10.14552        2.67408
O          2.28324        9.52899        1.87623
C          4.46985        8.50432        1.88341
C          0.08550       10.52839        1.82638
H          3.83287       10.10436        3.13177
H          3.07380        8.49159        3.52035
H          0.94703        9.47844        3.49809
H          1.69043       11.09537        3.09735
H         -0.41791        9.61998        1.44053
H         -0.63744       11.09696        2.45110
H          0.39975       11.16878        0.97549
H          4.79049        9.16244        1.04865
H          5.34758        8.30695        2.53702
H          4.10340        7.53900        1.47691
H          5.84211        0.82129       -0.70833
C          6.41890        0.58315       -2.71825
C          5.67315        0.05943       -1.48993
C          5.83068        1.89776       -3.24016
H          7.47922        0.76073       -2.42422
H          6.40977       -0.18319       -3.51700
H          4.78075        1.72418       -3.56627
H          5.82653        2.66599       -2.43335
C          6.64412        2.43124       -4.41470
H          6.18530       -0.86504       -1.14955
H          7.67919        2.67379       -4.08843
H          6.68996        1.67720       -5.22883
H          6.17506        3.35614       -4.81127
C          1.27960        2.23074       -2.90758
C          1.56015        3.24268       -3.83554
C          1.80283        4.37664       -3.07982
C          1.65014        3.99386       -1.76575
N          1.33730        2.69603       -1.62178
C          1.78083        4.91389       -0.62475
N          0.74152        5.93931       -0.71866
C         -0.68121        5.60387       -0.57622
H          1.58352        3.18547       -4.91552
H          1.04434        1.23147       -3.19775
H          2.04519        5.35865       -3.48078
H          1.73565        4.37138        0.34110
H          2.77370        5.40401       -0.69384
C         -0.89152        4.74294        0.68086
C         -1.39946        6.95499       -0.46893
C         -1.24954        4.90306       -1.84143
H         -0.39726        5.22444        1.55234
H         -1.96201        4.57029        0.90030
H         -0.41851        3.74633        0.53288
H         -1.25822        7.52686       -1.41569
H         -2.48822        6.81985       -0.30478
H         -0.97750        7.55930        0.35793
H         -0.87301        5.40205       -2.76284
H         -0.99839        3.82654       -1.89557
H         -2.35895        4.97153       -1.87183
