81
speciation634.ct
Na         1.28807        1.87961        0.05279
Mg         4.75994       -1.31823       -6.22413
C          6.85641       -3.36975       -6.01853
C          6.32443       -2.81385       -8.21191
O          6.18800       -2.44225       -6.85325
C          6.73648       -2.97116       -4.55888
C          5.30920       -2.09148       -9.08015
H          6.41866       -4.38473       -6.13815
H          7.94808       -3.38858       -6.25287
H          7.33969       -2.52015       -8.55463
H          6.16353       -3.90734       -8.37350
H          5.41529       -0.99643       -8.95827
H          5.49299       -2.35137      -10.14594
H          4.27847       -2.40189       -8.81142
H          5.71269       -2.64164       -4.31946
H          6.97923       -3.84115       -3.91156
H          7.44476       -2.14932       -4.33842
H          3.63276       -3.53587       -5.27500
C          1.80131       -2.41735       -5.51554
C          3.28999       -2.48365       -5.18130
C          1.52339       -2.89985       -6.93898
H          1.25414       -3.07140       -4.79822
H          1.43642       -1.37669       -5.38880
H          2.05078       -2.23954       -7.65899
H          1.89522       -3.94098       -7.06296
C          0.02559       -2.88061       -7.23933
H          3.40904       -2.18794       -4.11752
H         -0.51592       -3.56984       -6.55513
H         -0.38219       -1.85485       -7.11653
H         -0.14992       -3.21178       -8.28428
C         -1.80614        1.11186        0.00633
C         -2.42238       -0.12259       -0.09157
C         -1.40880       -1.06091       -0.17287
C         -0.22762       -0.36153       -0.10659
N         -0.47322        0.94786       -0.00709
C          1.16395       -0.98294       -0.13942
N          2.24500        0.03300       -0.00400
C          3.05770       -0.05390        1.24695
H         -3.48546       -0.31606       -0.10406
H         -2.30176        2.06801        0.07573
H         -1.53262       -2.13602       -0.25192
H          1.30012       -1.51762       -1.10134
H          1.20420       -1.74275        0.66297
C          3.80759       -1.40360        1.35140
C          4.12198        1.05633        1.23773
C          2.17962        0.17377        2.49554
H          4.41098       -1.57909        0.43732
H          4.49634       -1.39877        2.22457
H          3.12777       -2.26633        1.48058
H          3.66527        2.05143        1.04597
H          4.66540        1.10280        2.20600
H          4.89757        0.83324        0.49031
H          1.66739        1.15757        2.43470
H          1.41574       -0.61821        2.61694
H          2.80946        0.17042        3.41335
Mg         3.38218        0.08335       -1.63630
C          4.97163        1.53532       -7.23570
C          4.69032        2.84936       -6.86566
C          4.10347        2.79783       -5.62376
C          4.05141        1.46167       -5.28241
N          4.56539        0.68535       -6.26228
C          3.54368        0.95258       -3.99450
N          4.51935        0.13370       -3.26860
C          5.77067        0.78388       -2.77388
H          4.90031        3.74944       -7.42682
H          5.44200        1.24729       -8.14774
H          3.76841        3.63384       -5.02368
H          2.65786        0.31779       -4.19699
H          3.18907        1.78499       -3.34528
C          5.46128        2.04664       -1.94502
C          6.48579       -0.25656       -1.89412
C          6.75832        1.18565       -3.89463
H          4.61792        1.87225       -1.26544
H          6.35676        2.37102       -1.36839
H          5.14826        2.89082       -2.59114
H          6.72450       -1.15864       -2.48569
H          7.44364        0.14145       -1.49284
H          5.85270       -0.57940       -1.05042
H          6.99826        0.33011       -4.55689
H          6.38061        2.02523       -4.50397
H          7.70392        1.56776       -3.44914
