53
speciation836.ct
Na         1.46945        1.73106       -0.13085
C         -1.58323        0.95165       -0.12496
C         -2.26450       -0.24725       -0.10720
C         -1.30810       -1.24771       -0.08449
C         -0.08463       -0.60836       -0.09061
N         -0.25994        0.71494       -0.11506
C          1.28015       -1.24406       -0.06799
N          2.34746       -0.21465       -0.07773
C          3.23261       -0.16327        1.10747
H         -3.33839       -0.37382       -0.10934
H         -2.02387        1.93863       -0.14438
H         -1.48656       -2.31298       -0.06734
H          1.39272       -1.87819       -0.97167
H          1.32966       -1.90567        0.81650
C          4.02067       -1.47517        1.29904
C          4.25047        0.97212        0.88460
C          2.40992        0.15793        2.36559
H          4.61957       -1.69943        0.39206
H          4.71392       -1.38094        2.16453
H          3.35779       -2.33665        1.50668
H          3.73989        1.94268        0.73487
H          4.93183        1.07549        1.75863
H          4.86986        0.77529       -0.01576
H          1.81894        1.07482        2.17760
H          1.69816       -0.64971        2.62458
H          3.07241        0.31852        3.24566
Na         3.50912       -0.34693       -1.86398
Mg        -1.59239        3.11355        3.06215
C          2.99079        4.35171       -0.71561
C          2.92683        5.71144       -0.49576
C          1.77207        5.94280        0.22526
C          1.19134        4.70677        0.42605
N          1.92916        3.74917       -0.15932
C         -0.05524        4.42607        1.20498
N          0.17731        3.47114        2.30908
C          1.03564        3.88318        3.45071
H          3.64920        6.44665       -0.81770
H          3.77371        3.82310       -1.24299
H          1.41032        6.89666        0.58376
H         -0.52267        5.35897        1.57974
H         -0.78764        3.96776        0.50865
C          0.56738        5.21580        4.06276
C          0.91300        2.79660        4.53786
C          2.52481        3.98428        3.05471
H         -0.49224        5.13896        4.38738
H          1.19225        5.47142        4.94508
H          0.66506        6.04916        3.33815
H          1.23520        1.80745        4.16834
H          1.55004        3.04443        5.41443
H         -0.13706        2.69692        4.88281
H          2.86552        3.05517        2.56249
H          2.72997        4.83657        2.38789
H          3.15995        4.15126        3.94794
