110
speciation2634.ct
Na         1.08933       -0.04422       -0.00800
Mg        -2.12152       -4.89039        0.14851
C         -4.50784       -3.69107       -0.47431
C         -3.98421       -5.47813       -1.96198
O         -3.48714       -4.43715       -1.12869
C         -5.57174       -4.49730        0.27502
C         -4.63773       -4.94155       -3.23949
H         -4.01952       -3.11588        0.32190
H         -4.96126       -2.95375       -1.17120
H         -3.13114       -6.11692       -2.27089
H         -4.69260       -6.14641       -1.44079
H         -3.89481       -4.39844       -3.85963
H         -5.04411       -5.79148       -3.82880
H         -5.48463       -4.26399       -3.00546
H         -5.08116       -5.20376        0.97605
H         -6.20630       -3.79648        0.85767
H         -6.24315       -5.03934       -0.42032
H          6.24542        1.83045        0.95605
C          7.24204        2.81210       -0.68538
C          6.31617        1.72906       -0.14540
C          6.67492        4.21097       -0.45596
H          8.22876        2.71904       -0.17633
H          7.39148        2.64492       -1.77337
H          5.70091        4.29688       -0.97867
H          6.51844        4.38649        0.63113
C          7.62876        5.27297       -0.99934
H          6.78961        0.75165       -0.36856
H          8.60040        5.23372       -0.46117
H          7.80943        5.11143       -2.08377
H          7.18446        6.28033       -0.85932
C         -0.53231       -4.04557        2.51706
C          0.12416       -3.00211        3.11448
C         -0.10494       -1.89620        2.32835
C         -0.94685       -2.28908        1.27568
N         -1.16800       -3.62983        1.39752
C         -1.56807       -1.48983        0.14386
N         -1.28067       -0.04422       -0.00800
C         -1.90419        0.95151        0.93127
H          0.72870       -3.04033        4.01360
H         -0.52785       -5.06580        2.87231
H          0.32388       -0.94549        2.54934
H         -2.64823       -1.60904        0.15658
H         -1.19926       -1.98096       -0.78068
C         -1.24447        0.98974        2.32187
C         -1.69636        2.34613        0.32631
C         -3.41729        0.72568        1.12722
H         -0.14630        1.14540        2.23092
H         -1.63473        1.83688        2.92606
H         -1.50354        0.09267        2.91237
H         -2.17150        2.42712       -0.67209
H         -2.12819        3.13695        0.97988
H         -0.61345        2.54419        0.23607
H         -3.95456        0.75260        0.15820
H         -3.61418       -0.24225        1.63505
H         -3.83764        1.51806        1.78716
Na        -2.00146        0.41474       -1.96810
Mg         4.29753        1.57389       -0.76527
C          0.30243       -6.23689       -0.17574
C         -1.53168       -7.71351       -0.06986
O         -1.02217       -6.44452        0.29297
C          0.45578       -6.29081       -1.69936
C         -2.90488       -7.91597        0.54512
H          0.60953       -5.22245        0.15001
H          1.01030       -6.93713        0.32153
H         -1.63798       -7.81532       -1.16955
H         -0.87361       -8.51811        0.33235
H         -3.59959       -7.14615        0.17395
H         -3.29630       -8.91569        0.25864
H         -2.85567       -7.84040        1.64976
H         -0.27770       -5.61221       -2.18141
H          1.48300       -5.97298       -1.97748
H          0.32035       -7.32470       -2.07935
H          4.01119        3.56434       -2.56886
C          2.00577        2.73711       -2.55819
C          3.53308        2.56765       -2.50022
C          1.41407        3.50159       -1.36668
H          1.72772        3.26675       -3.49727
H          1.53270        1.73142       -2.58433
H          0.31383        3.55739       -1.52021
H          1.62326        2.94558       -0.42778
C          1.92470        4.93363       -1.22891
H          3.84490        1.98855       -3.39436
H          3.01304        4.94580       -1.01935
H          1.71345        5.51045       -2.15400
H          1.40676        5.42667       -0.37819
C          6.04282       -0.69987        3.69594
C          5.13601       -1.65659        4.09519
C          4.02834       -1.53064        3.28393
C          4.24737       -0.53430        2.41722
N          5.51963        0.03748        2.61645
C          3.20188       -0.04250        1.45145
N          3.45933       -0.04422       -0.00800
C          3.73238       -1.33347       -0.70742
H          5.26399       -2.35678        4.91128
H          7.00811       -0.52853        4.15192
H          3.11801       -2.11289        3.36390
H          2.93490        0.99495        1.73936
H          2.30475       -0.64979        1.63909
C          2.57523       -2.34372       -0.51436
C          3.84693       -1.01980       -2.20924
C          5.05398       -1.99986       -0.26671
H          1.61760       -1.94124       -0.90108
H          2.77354       -3.27635       -1.08579
H          2.44951       -2.62771        0.55015
H          4.68373       -0.31013       -2.38923
H          4.04558       -1.94284       -2.79721
H          2.91135       -0.55638       -2.58836
H          5.92648       -1.35567       -0.48476
H          5.05762       -2.27122        0.80222
H          5.19557       -2.95594       -0.81836
