110
speciation2245.ct
Na         0.92859        0.06990       -0.00394
Mg         4.30225       -1.32805       -1.17897
C         -1.84909        0.71184       -1.18306
C         -1.99702        0.60082        1.16204
O         -1.39141        0.06990       -0.00394
C         -1.50471        2.20620       -1.27031
C         -1.45360       -0.09752        2.40038
H         -1.34793        0.20676       -2.03544
H         -2.93993        0.54747       -1.32528
H         -1.78943        1.68252        1.29371
H         -3.09395        0.41723        1.12925
H         -0.37470        0.12252        2.51953
H         -1.98638        0.27832        3.30068
H         -1.59802       -1.19494        2.32745
H         -0.41824        2.36468       -1.10717
H         -1.77715        2.58755       -2.27666
H         -2.08367        2.80329       -0.53627
H          1.85478       -2.47314       -1.37372
C          2.86015       -3.88028       -2.66880
C          2.67920       -2.46416       -2.11921
C          3.23708       -4.88718       -1.57750
H          1.90750       -4.21230       -3.14177
H          3.63377       -3.85292       -3.46445
H          4.15069       -4.55942       -1.05096
H          2.42306       -4.95612       -0.82574
C          3.49104       -6.26565       -2.18558
H          2.35288       -1.85072       -2.98359
H          2.56877       -6.65081       -2.67021
H          4.30190       -6.21012       -2.94448
H          3.80223       -6.97496       -1.39063
C          2.43305        2.85044       -3.58581
C          1.74942        1.65150       -3.58305
C          2.10076        0.99144       -2.44010
C          2.99827        1.80556       -1.77057
N          3.18228        2.94734       -2.48166
C          3.64587        1.45003       -0.42660
N          3.29859        0.06990       -0.00394
C          3.63494       -0.35493        1.37942
H          1.06182        1.30666       -4.35529
H          2.37016        3.60284       -4.34720
H          1.72446        0.03997       -2.12875
H          3.28473        2.19724        0.30839
H          4.74009        1.51632       -0.51298
C          2.94316        0.52609        2.43526
C          3.12817       -1.80343        1.52247
C          5.14860       -0.36260        1.65613
H          1.85266        0.56167        2.25941
H          3.12221        0.11504        3.45458
H          3.34677        1.55782        2.42885
H          3.64108       -2.46485        0.78728
H          3.32812       -2.20674        2.53863
H          2.03646       -1.86167        1.32697
H          5.65416       -1.05777        0.96885
H          5.59368        0.64896        1.57103
H          5.34496       -0.73298        2.68930
Na         4.11463        4.84337       -2.63792
Mg         3.77365        8.74259       -1.77538
C          6.45691       -3.08341       -1.96735
C          7.20631       -0.96254       -1.17928
O          6.14693       -1.69233       -1.83140
C          6.84904       -3.82789       -0.67361
C          8.48470       -0.88544       -2.04129
H          5.56657       -3.55881       -2.38474
H          7.21694       -3.25764       -2.75445
H          6.84542        0.07463       -1.00132
H          7.46097       -1.39100       -0.19677
H          8.30244       -0.31381       -2.97046
H          9.26866       -0.37441       -1.45274
H          8.89097       -1.88680       -2.29665
H          6.09271       -3.65555        0.11838
H          6.91700       -4.92017       -0.87379
H          7.85151       -3.51601       -0.30699
H          3.92914       11.28793       -1.19598
C          2.23921       10.56224       -0.05827
C          3.06527       10.60468       -1.33672
C          1.05950        9.59746       -0.19913
H          2.89335       10.22612        0.77533
H          1.86818       11.58617        0.16587
H          0.40753        9.91941       -1.04028
H          1.44021        8.57450       -0.41237
C          0.22876        9.56242        1.08131
H          2.45275       10.96842       -2.18903
H          0.85346        9.23390        1.93929
H         -0.18641       10.56999        1.29828
H         -0.61385        8.84954        0.96100
C          6.57555        3.58889       -2.03300
C          6.66065        3.32260       -0.69622
C          6.24405        4.46529       -0.02265
C          6.02375        5.41323       -1.00329
N          6.07733        4.81089       -2.14731
C          5.37082        6.76415       -1.02423
N          4.46466        6.92614       -2.20330
C          4.91269        7.13260       -3.66919
H          6.89370        2.34320       -0.29826
H          6.73253        2.93177       -2.87226
H          6.04819        4.54328        1.03181
H          6.12890        7.58083       -1.02328
H          4.76067        6.87976       -0.09877
C          5.61256        5.94829       -4.45447
C          3.62290        7.37650       -4.47431
C          5.84412        8.34284       -3.85576
H          5.05313        4.98946       -4.47345
H          5.70548        6.18912       -5.53738
H          6.67053        5.78835       -4.16493
H          3.09494        8.28249       -4.11690
H          3.83692        7.51281       -5.56150
H          2.94388        6.50119       -4.37998
H          5.37047        9.28913       -3.56668
H          6.79256        8.18696       -3.29458
H          6.13635        8.42401       -4.93751
