81
speciation621.ct
Na         1.22281       -0.63459        0.63654
Mg         3.93931       -0.97436       -1.37836
C          1.87667       -0.17371       -2.96217
C          3.85364       -0.68005       -4.19868
O          3.29536       -0.18213       -2.99007
C          1.21001       -1.52263       -3.25856
C          3.54400        0.19770       -5.41287
H          1.57686        0.10877       -1.93416
H          1.47195        0.62859       -3.61328
H          4.95486       -0.62762       -4.10013
H          3.58344       -1.74219       -4.37907
H          3.90398        1.23265       -5.23136
H          4.06987       -0.20980       -6.30338
H          2.45954        0.21545       -5.63832
H          1.61152       -2.30687       -2.58398
H          0.11472       -1.43101       -3.09402
H          1.35699       -1.82100       -4.31684
H          5.66376       -2.33529       -3.00344
C          5.70503       -3.77005       -1.45101
C          5.59309       -2.31093       -1.90132
C          4.57843       -4.63216       -2.03279
H          6.67803       -4.16446       -1.82384
H          5.71195       -3.83336       -0.34337
H          3.59918       -4.28188       -1.64277
H          4.57162       -4.54598       -3.14218
C          4.77549       -6.10522       -1.67432
H          6.48940       -1.76219       -1.54626
H          5.73270       -6.48015       -2.09953
H          4.79153       -6.24024       -0.57299
H          3.94597       -6.71036       -2.09815
C          6.29933        3.16875        0.24794
C          6.58282        2.26136       -0.74477
C          5.50055        1.41655       -0.82088
C          4.60771        1.83396        0.15040
N          5.09085        2.92603        0.79099
C          3.30059        1.17037        0.46144
N          3.33377       -0.31656        0.45467
C          3.92293       -1.04128        1.61104
H          7.49114        2.20615       -1.32964
H          6.95817        3.95988        0.58010
H          5.40444        0.56984       -1.48226
H          2.62764        1.46057       -0.36417
H          2.83823        1.58482        1.37985
C          3.44887       -0.48024        2.97094
C          3.45047       -2.50467        1.51413
C          5.45853       -1.01057        1.56285
H          2.34079       -0.50210        3.04530
H          3.86287       -1.09114        3.80370
H          3.80338        0.55940        3.12847
H          3.74756       -2.94883        0.54442
H          3.88073       -3.12131        2.33314
H          2.34312       -2.56540        1.58551
H          5.82576       -1.42477        0.60935
H          5.84697        0.01981        1.67829
H          5.88557       -1.62538        2.38478
Mg         4.68146        4.09758        2.34662
C          0.30648        5.29935        2.28913
C          0.20649        3.94549        2.53029
C          1.22129        3.60583        3.40438
C          1.91555        4.70963        3.68810
N          1.38706        5.83071        3.00976
C          3.09300        4.77988        4.62253
N          4.27206        5.26913        3.90224
C          5.51866        5.37811        4.69822
H         -0.53880        3.28221        2.10970
H         -0.34788        5.87236        1.64517
H          1.41607        2.61803        3.80274
H          3.26879        3.76043        5.02514
H          2.82015        5.46578        5.44807
C          5.91850        4.02312        5.32480
C          6.63909        5.80710        3.73714
C          5.38146        6.44880        5.80064
H          6.01297        3.24452        4.53761
H          6.89401        4.11037        5.85021
H          5.18187        3.67985        6.07934
H          6.39588        6.77997        3.26054
H          7.60543        5.90988        4.27719
H          6.77052        5.04979        2.93495
H          5.10586        7.42879        5.35620
H          4.61519        6.17064        6.55270
H          6.34272        6.56765        6.34639
