96
speciation1618.ct
Na         2.79679        0.46992        0.61657
Mg         0.31824        1.97189       -0.79705
C         -1.37338        3.12110        1.53663
C          0.00980        4.68877        0.39549
O         -0.37752        3.33410        0.52061
C         -2.72743        3.77233        1.21635
C          0.56435        5.30225        1.70076
H         -1.50914        2.04787        1.70798
H         -1.01921        3.43316        2.54096
H          0.80079        4.72232       -0.36483
H         -0.81181        5.30141       -0.02071
H          1.37171        4.67800        2.13797
H          0.96970        6.31043        1.49349
H         -0.23075        5.42954        2.46530
H         -3.11864        3.42243        0.24300
H         -3.46422        3.51810        2.00970
H         -2.64289        4.87601        1.18895
H          0.17476        3.06035       -3.24764
C         -1.67925        1.98061       -3.59439
C         -0.30497        2.12163       -2.91276
C         -2.70678        3.05684       -3.24640
H         -1.51936        2.00822       -4.69714
H         -2.10949        0.98293       -3.35294
H         -3.62777        2.84268       -3.83583
H         -2.96255        3.00666       -2.16990
C         -2.23129        4.46196       -3.60633
H          0.25916        1.29742       -3.37699
H         -1.36226        4.74912       -2.97938
H         -1.94829        4.51598       -4.67988
H         -3.05005        5.18702       -3.41728
C          5.40720        1.47827        2.32343
C          5.87624        2.79007        2.37610
C          4.99771        3.56146        1.63850
C          4.03065        2.69682        1.17338
N          4.30203        1.44023        1.53530
C          2.80908        2.98557        0.35856
N          2.58922        2.08441       -0.80147
C          3.57938        2.41501       -1.95771
H          6.75593        3.14390        2.89855
H          5.86302        0.60130        2.77925
H          5.03421        4.62145        1.46058
H          2.80167        4.05446        0.11913
H          1.98070        2.76726        1.05776
C          5.10881        2.28624       -1.56492
C          3.48285        1.52213       -3.23753
C          3.32825        3.85432       -2.48566
H          5.41568        1.28428       -1.20847
H          5.75955        2.48928       -2.43964
H          5.44761        3.01626       -0.81578
H          2.45254        1.40248       -3.61811
H          4.07644        1.96515       -4.05975
H          3.97206        0.54792       -3.20720
H          2.97867        3.86959       -3.54094
H          2.52465        4.38119       -1.94637
H          4.25718        4.46152       -2.46673
Mg         2.61565       -2.66534        1.06680
C          4.23670       -4.92793        1.41190
C          2.31873       -4.94834        2.77428
O          3.29382       -4.13870        2.13118
C          3.64321       -5.91013        0.37432
C          1.35609       -4.10833        3.60715
H          4.90579       -4.21984        0.88144
H          4.89138       -5.48746        2.11490
H          1.70218       -5.52261        2.05045
H          2.82818       -5.63728        3.48415
H          0.70295       -3.50066        2.96264
H          0.68575       -4.77776        4.18692
H          1.90624       -3.44838        4.30852
H          2.90293       -5.43994       -0.28902
H          4.45926       -6.31702       -0.25886
H          3.13082       -6.76329        0.85896
C         -2.09895        0.41838       -0.00326
C         -2.72729       -0.70917        0.51036
C         -1.74247       -1.61854        0.69827
C         -0.57163       -1.01391        0.30434
N         -0.75534        0.26546       -0.10330
C          0.66580       -1.78376        0.39364
N          1.92000       -1.15400       -0.02500
C          2.44994       -1.60457       -1.31967
H         -3.77821       -0.86028        0.73339
H         -2.62111        1.30821       -0.25499
H         -1.87022       -2.63605        1.07561
H          0.77192       -2.05676        1.44879
H          0.45587       -2.71445       -0.15988
C          1.52362       -1.04629       -2.39896
C          3.87057       -1.08047       -1.40393
C          2.64406       -3.12916       -1.45156
H          1.42123        0.02845       -2.18792
H          1.89676       -1.21199       -3.42764
H          0.50380       -1.48358       -2.31572
H          4.52465       -1.47965       -0.60085
H          4.33384       -1.34200       -2.37998
H          3.82454       -0.02463       -1.21328
H          3.39339       -3.43049       -0.69880
H          1.74689       -3.75509       -1.33793
H          3.07417       -3.38371       -2.44292
