110
speciation2449.ct
Na         0.94974        0.08551        0.01275
Mg         6.44409       -3.87098        1.79810
C         -1.91602       -1.13301        0.48961
C         -1.94520        0.43341       -1.24615
O         -1.37026        0.08551        0.01275
C         -1.66833       -2.35305       -0.41556
C         -1.34196        1.70650       -1.82172
H         -1.43994       -1.32267        1.46203
H         -3.00240       -1.02356        0.70524
H         -1.77166       -0.34007       -2.02219
H         -3.03333        0.62030       -1.11732
H         -0.29234        1.52208       -2.12354
H         -1.87811        1.99225       -2.75007
H         -1.41560        2.54259       -1.09403
H         -0.59984       -2.42055       -0.70231
H         -1.96259       -3.27867        0.12086
H         -2.28638       -2.31113       -1.33630
H          8.92828       -4.60239        0.76772
C          7.84905       -6.24868        0.26154
C          8.13341       -5.17239        1.26585
C          6.86047       -7.24267        0.83225
H          7.44884       -5.77183       -0.65994
H          8.80755       -6.76160        0.01618
H          7.28807       -7.70451        1.74724
H          5.91485       -6.71646        1.08660
C          6.59222       -8.34050       -0.17768
H          8.61124       -5.58492        2.17743
H          6.17919       -7.90379       -1.11135
H          7.53899       -8.87582       -0.40817
H          5.86395       -9.05642        0.25088
C          6.88072        2.55375        3.06394
C          6.18420        2.06684        4.12747
C          5.16554        1.26299        3.61257
C          5.23926        1.26720        2.19634
N          6.34203        2.06311        1.94120
C          4.49861        0.18879        1.11510
N          3.31974        0.08551        0.01275
C          2.91806        1.60089        0.29153
H          6.46602        2.23942        5.17040
H          7.80338        3.13619        3.11402
H          4.52230        0.66894        4.24503
H          5.29286        0.07642        0.43823
H          4.44735       -0.60358        1.86399
C          4.04873        2.66399       -0.07418
C          1.78702        2.28897       -0.54217
C          2.33662        1.75773        1.77207
H          4.20535        2.72065       -1.16659
H          3.77723        3.68210        0.29794
H          5.06202        2.56962        0.23243
H          0.76716        1.97113       -0.36022
H          1.65452        3.33796       -0.16515
H          2.01642        2.38560       -1.62069
H          1.36590        1.23923        1.87911
H          2.89256        1.32647        2.61000
H          2.18716        2.82086        2.05496
Na         7.33645        2.10791        0.10470
Mg         4.12024       -1.76605        0.68059
C          2.88103       -4.04224        1.71083
C          1.41917       -2.18122        1.92495
O          2.77641       -2.63594        1.89281
C          2.16047       -4.58906        0.47943
C          0.63211       -2.61646        3.18559
H          3.95655       -4.24562        1.55067
H          2.58329       -4.59403        2.62717
H          1.42043       -1.07730        1.94540
H          0.86745       -2.45971        1.01270
H          1.05674       -2.15527        4.10072
H         -0.42489       -2.28167        3.12298
H          0.59696       -3.71753        3.30635
H          2.44894       -3.99516       -0.41212
H          2.45085       -5.64918        0.33355
H          1.05943       -4.56977        0.61514
H          5.89046       -3.93452        4.72671
C          5.10019       -5.78445        4.10475
C          5.39953       -4.32878        3.80809
C          6.39213       -6.53752        4.40946
H          4.43284       -5.85446        4.99476
H          4.57770       -6.21600        3.22758
H          7.09831       -6.40132        3.57739
H          6.86689       -6.13052        5.33117
C          6.11824       -8.02257        4.58852
H          4.44628       -3.76953        3.76618
H          5.43922       -8.18708        5.45134
H          5.64812       -8.42971        3.66780
H          7.07391       -8.55671        4.76818
C          6.37524        1.38961       -2.35718
C          5.81792        0.54990       -3.31135
C          5.90923       -0.74064       -2.77143
C          6.54291       -0.62626       -1.51680
N          6.74713        0.68046       -1.29730
C          6.77851       -1.93061       -0.62834
N          6.36269       -2.05273        0.81333
C          7.41355       -1.49745        1.80049
H          5.40384        0.86049       -4.26484
H          6.42010        2.46396       -2.44295
H          5.53826       -1.62581       -3.27636
H          7.86368       -2.10554       -0.75149
H          6.31446       -2.77484       -1.17166
C          7.94657       -0.14690        1.40948
C          6.86265       -1.47509        3.26114
C          8.73036       -2.30421        1.85784
H          8.39349        0.40704        2.26999
H          7.15171        0.31294        0.98932
H          8.65230       -0.14763        0.56190
H          6.93608       -2.47298        3.68370
H          7.49134       -0.87424        3.95026
H          5.81117       -1.17089        3.38697
H          8.75741       -3.16427        2.55319
H          8.90886       -2.63386        0.86222
H          9.67975       -1.90986        1.43794
