80
speciation935.ct
Na         0.30679       -5.42338        0.62512
Mg         2.10239       -0.02127       -2.72600
H          0.76993        1.97690       -1.26761
C          1.24263        1.05775        0.61392
C          1.03252        0.95395       -0.92587
C          2.25151        2.11668        1.08054
H          0.26429        1.38753        1.03719
H          1.47591        0.06446        1.04883
H          1.96788        3.08125        0.61184
H          2.18170        2.25743        2.18669
C          3.69554        1.76737        0.75128
H          0.11827        0.34472       -1.04713
H          4.11640        1.09681        1.53192
H          3.76500        1.26883       -0.23326
H          4.29709        2.70126        0.73570
C          3.70726       -2.72442       -2.15608
C          3.74870       -3.97693       -1.56204
C          2.56430       -4.13168       -0.90118
C          1.84694       -2.96195       -1.10665
N          2.56656       -2.05181       -1.88410
C          0.45020       -2.77611       -0.55073
N          0.35268       -3.27525        0.83868
C         -0.89498       -2.96074        1.59438
H          4.54549       -4.71410       -1.59615
H          4.51117       -2.34066       -2.77236
H          2.27213       -4.99958       -0.32785
H         -0.26964       -3.34334       -1.17657
H          0.24217       -1.71243       -0.61994
C         -2.11117       -3.72611        1.02501
C         -0.70146       -3.40118        3.06325
C         -1.19834       -1.44974        1.60146
H         -1.91781       -4.81901        0.98646
H         -3.00086       -3.57616        1.67921
H         -2.37671       -3.37178        0.00913
H          0.16255       -2.87402        3.52113
H         -1.60303       -3.14894        3.66896
H         -0.53142       -4.49478        3.14733
H         -0.36251       -0.89906        2.07575
H         -1.37258       -1.05745        0.58067
H         -2.12730       -1.23870        2.17106
Na         2.05812       -2.46045        1.82286
Mg         0.38737        1.15932       -3.05569
H          4.13228        0.63023       -4.52709
C          5.18351        1.53340       -2.90163
C          3.86271        1.16536       -3.58756
C          5.95149        0.26785       -2.53759
H          5.81496        2.15543       -3.58394
H          4.96773        2.14034       -2.00074
H          5.29365       -0.36354       -1.91239
H          6.22671       -0.28384       -3.46605
C          7.21482        0.57025       -1.74116
H          3.39944        2.12695       -3.90738
H          7.93241        1.17123       -2.33902
H          6.95281        1.12226       -0.81371
H          7.69860       -0.38838       -1.45729
C         -1.50891        3.50542       -3.38335
C         -1.98217        3.98059       -4.59103
C         -1.37499        3.21383       -5.56845
C         -0.55806        2.31641       -4.90173
N         -0.67509        2.47331       -3.58877
C          0.45470        1.30070       -5.48194
N          0.85859        0.13725       -4.57977
C          0.25240       -1.14632       -5.04972
H         -2.67836        4.79574       -4.74229
H         -1.77272        3.89837       -2.40412
H         -1.51072        3.32405       -6.64224
H          0.05535        1.00467       -6.46316
H          1.36160        1.88599       -5.73308
C          0.72104       -1.51963       -6.49524
C          0.75808       -2.25267       -4.14917
C         -1.28719       -1.12868       -4.99817
H          1.83021       -1.49999       -6.57089
H          0.37377       -2.54095       -6.76616
H          0.31045       -0.86716       -7.28906
H          0.41991       -2.03102       -3.12616
H          0.36168       -3.24568       -4.44679
H          1.86577       -2.29586       -4.21840
H         -1.63839       -0.88988       -3.97423
H         -1.71214       -0.38945       -5.70763
H         -1.68836       -2.12715       -5.28372
