96
speciation1041.ct
Na         1.32854        0.37320        0.16259
Mg        -4.18246       -2.09831       -0.53916
C          2.23445        2.29895       -2.10620
C         -0.13849        2.34956       -1.77796
O          1.09091        1.68280       -1.53054
C          2.43886        3.76990       -1.71785
C         -0.56991        2.26151       -3.24594
H          3.11332        1.73372       -1.75034
H          2.24562        2.17113       -3.20955
H         -0.92227        1.85177       -1.17125
H         -0.12228        3.39856       -1.42186
H         -0.67298        1.20337       -3.56051
H         -1.54920        2.76785       -3.37636
H          0.16152        2.76369       -3.91102
H          2.40597        3.89202       -0.61620
H          3.42664        4.11661       -2.08605
H          1.67150        4.41924       -2.18955
H         -6.82860       -2.19183       -0.98451
C         -6.34508       -2.36733       -3.07694
C         -6.00679       -1.88134       -1.66274
C         -6.50545       -3.88647       -3.13598
H         -7.31267       -1.90000       -3.37479
H         -5.56545       -2.02743       -3.79287
H         -5.54105       -4.36866       -2.87405
H         -7.28215       -4.20340       -2.40588
C         -6.94718       -4.34541       -4.52651
H         -5.99553       -0.77239       -1.70080
H         -7.93089       -3.89831       -4.79096
H         -6.19896       -4.05193       -5.29261
H         -7.05384       -5.45068       -4.53525
C         -2.37466       -1.87294       -2.23514
C         -1.18043       -1.54486       -2.76756
C         -0.49512       -0.92132       -1.73968
C         -1.23927       -0.96332       -0.58228
N         -2.46802       -1.47802       -0.94669
C         -0.63740       -0.74072        0.98669
N         -0.10293        0.28705        2.08993
C          0.12800        1.66115        2.55505
H         -0.88763       -1.79654       -3.78363
H         -3.16353       -2.43587       -2.74622
H          0.47207       -0.55960       -1.81506
H         -1.26376       -1.44738        1.55819
H          0.24762       -1.39115        0.86061
C         -1.15341        2.49547        2.51789
C          0.61643        1.53201        4.01276
C          1.24724        2.34750        1.76178
H         -1.94073        2.02181        3.14173
H         -0.95212        3.51125        2.92649
H         -1.52177        2.59608        1.47679
H          1.53727        0.90555        4.05677
H          0.85493        2.52280        4.45513
H         -0.15271        1.03713        4.64380
H          2.17765        1.73648        1.78084
H          0.92806        2.51425        0.72478
H          1.49035        3.34121        2.19449
Mg        -2.05942        0.23802        1.72962
C          4.12478       -0.65499        0.62362
C          3.56156       -1.45861       -1.48993
O          3.05694       -0.88483       -0.27918
C          5.00144        0.52722        0.19971
C          2.47246       -1.81744       -2.46887
H          3.68636       -0.43641        1.61794
H          4.74242       -1.57295        0.77113
H          4.23059       -0.76496       -2.03851
H          4.08475       -2.41503       -1.26563
H          2.10122       -0.87538       -2.91629
H          2.87045       -2.39489       -3.32419
H          1.69986       -2.43419       -1.95743
H          4.37342        1.42909        0.07161
H          5.76582        0.72910        0.97452
H          5.54642        0.31809       -0.74430
C         -4.82131        1.23172        1.10826
C         -6.12509        0.80155        0.99626
C         -6.11485       -0.56074        1.21690
C         -4.80107       -0.91583        1.46745
N         -4.01592        0.18899        1.36930
C         -4.33607       -2.33296        1.83498
N         -3.33293       -2.81167        0.88146
C         -2.84836       -4.21801        0.93003
H         -6.99069        1.41910        0.79730
H         -4.47823        2.25462        1.02492
H         -6.97683       -1.21328        1.21709
H         -3.91670       -2.32560        2.85603
H         -5.22694       -2.99156        1.79212
C         -3.99652       -5.20587        0.67111
C         -1.77698       -4.47742       -0.16861
C         -2.16269       -4.46809        2.28199
H         -4.45329       -4.98958       -0.32123
H         -3.61560       -6.25054        0.65413
H         -4.77812       -5.13987        1.44915
H         -0.92335       -3.76999       -0.10161
H         -1.35110       -5.50341       -0.05770
H         -2.20275       -4.42943       -1.19275
H         -1.31505       -3.75635        2.40585
H         -2.86869       -4.32702        3.12137
H         -1.75716       -5.50054        2.33866
