81
speciation604.ct
Na         5.94393        3.57884        3.26685
Mg         2.42051        4.44334       -0.87033
C          3.07511        5.68601       -2.89451
C          1.31560        6.98421       -1.99958
O          1.80475        5.66074       -2.26919
C          4.13981        6.49875       -2.13136
C          0.97858        7.78886       -3.26605
H          3.41789        4.63385       -2.89570
H          3.00528        5.95749       -3.96436
H          0.38183        6.93257       -1.40081
H          2.02337        7.57735       -1.39558
H          0.03851        7.42670       -3.73028
H          0.85102        8.85864       -2.99278
H          1.78903        7.75745       -4.01842
H          4.07792        6.28158       -1.04444
H          5.15434        6.23366       -2.48174
H          4.00671        7.59101       -2.29286
H          2.47561        6.72982        0.57175
C          1.99002        5.57136        2.27193
C          1.86523        5.82908        0.77999
C          3.42820        5.32008        2.69923
H          1.61454        6.46201        2.82887
H          1.35857        4.69696        2.53121
H          3.80349        4.45119        2.14501
H          4.08389        6.19200        2.47136
C          3.45564        5.02720        4.19459
H          0.80229        6.10453        0.61787
H          3.11759        5.91934        4.76206
H          2.77508        4.17662        4.41494
H          4.47703        4.76615        4.52991
C          6.98235        4.37352        0.62312
C          6.92801        4.38077       -0.74718
C          5.82368        3.65131       -1.09726
C          5.24607        3.20037        0.07329
N          5.96517        3.65617        1.13138
C          4.02952        2.30284        0.15855
N          3.17303        2.45276       -1.04180
C          2.00542        1.51485       -1.12412
H          7.61771        4.85920       -1.42559
H          7.73420        4.86258        1.22704
H          5.51378        3.47540       -2.10434
H          4.38001        1.25902        0.29440
H          3.45935        2.58882        1.06006
C          1.05823        1.88743        0.04885
C          1.44375        1.66646       -2.56792
C          2.30367       -0.01901       -1.03668
H          0.91784        2.98674        0.10374
H          0.08665        1.36039        0.06061
H          1.54251        1.60101        1.01351
H          2.21197        1.27139       -3.28215
H          0.53826        1.04225       -2.74231
H          1.23851        2.70357       -2.88884
H          3.11548       -0.32614       -1.72989
H          2.50885       -0.40159       -0.01712
H          1.39453       -0.58822       -1.36447
Mg         4.24526        2.24440       -2.74352
C          5.54951        0.74361       -4.94767
C          6.32605        0.78264       -6.09149
C          6.60858        2.10334       -6.32287
C          5.97455        2.82501       -5.32613
N          5.34311        1.98847       -4.45491
C          5.98015        4.33002       -5.27931
N          5.97702        4.84080       -6.67307
C          6.03373        6.30718       -6.88929
H          6.64535       -0.05287       -6.70363
H          5.16049       -0.15953       -4.49921
H          7.18398        2.50401       -7.14990
H          5.07785        4.67228       -4.74000
H          6.88656        4.65760       -4.73265
C          7.31815        6.90526       -6.28092
C          6.01007        6.57502       -8.41539
C          4.80132        7.00408       -6.29579
H          8.22115        6.41034       -6.69980
H          7.38448        7.99605       -6.48373
H          7.32313        6.77838       -5.17979
H          5.10974        6.10665       -8.87199
H          5.95866        7.66697       -8.62921
H          6.90534        6.17034       -8.93380
H          3.87249        6.60820       -6.76034
H          4.75642        6.87005       -5.20042
H          4.85220        8.09689       -6.49673
