110
speciation2066.ct
Na         1.29319        0.04335       -0.53457
Mg        -2.41772        1.60512        0.58479
C          3.74594       -0.71219       -2.68959
C          4.49199        0.75555       -1.07608
O          3.44215       -0.15059       -1.40441
C          4.66337       -1.94116       -2.59670
C          4.44317        1.15573        0.38534
H          2.83340       -1.01682       -3.18342
H          4.18034        0.03354       -3.40180
H          5.49418        0.28413       -1.20581
H          4.44869        1.66463       -1.72905
H          4.53564        0.26205        1.01643
H          5.28988        1.85239        0.58166
H          3.50089        1.67545        0.58506
H          4.21973       -2.70823       -1.93324
H          4.80387       -2.38206       -3.60767
H          5.67064       -1.67524       -2.21472
H         -4.45836        1.05845       -1.20818
C         -2.90872       -0.25718       -1.88587
C         -3.35694        1.08597       -1.33365
C         -3.40969       -0.49382       -3.32234
H         -1.80847       -0.27434       -1.89187
H         -3.28057       -1.04717       -1.20278
H         -4.51062       -0.35935       -3.38896
H         -2.92267        0.24304       -4.00115
C         -3.07555       -1.90734       -3.79375
H         -3.18968        1.87100       -2.09383
H         -1.99690       -2.11359       -3.69106
H         -3.63267       -2.65115       -3.18698
H         -3.35510       -2.03096       -4.86119
C          0.07974        4.84617        3.99581
C         -1.22783        4.42338        3.97482
C         -1.25503        3.34373        3.10997
C          0.02348        3.15273        2.63304
N          0.84172        4.07886        3.18244
C          0.49287        2.04857        1.70130
N         -0.12729        1.93928        0.34679
C          0.22030        3.11162       -0.56493
H         -2.06546        4.82273        4.52542
H          0.45658        5.67361        4.57965
H         -2.11052        2.75989        2.86414
H          0.29223        1.10979        2.23111
H          1.59054        2.11103        1.61566
C          1.73638        3.39510       -0.69374
C         -0.27009        2.80699       -1.98471
C         -0.43138        4.44217       -0.12618
H          2.26396        2.52383       -1.11879
H          1.90733        4.25015       -1.39068
H          2.19482        3.71030        0.26491
H         -1.35501        2.74299       -1.98958
H         -0.00987        3.63082       -2.68860
H          0.17225        1.86598       -2.37062
H         -1.50073        4.31548       -0.02541
H         -0.02738        4.84662        0.81680
H         -0.27131        5.24097       -0.88449
Na         2.93787        4.34832        2.89327
Mg        -1.24080       -2.01245       -0.49976
C         -4.22522       -0.53517        1.85426
C         -2.60940        0.32630        3.36823
O         -2.95890        0.13906        1.99454
C         -5.38794       -0.18288        2.83005
C         -2.47056       -0.96107        4.20694
H         -4.59895       -0.35625        0.82893
H         -4.05243       -1.63182        1.92838
H         -1.59972        0.75895        3.40802
H         -3.31411        1.03052        3.86337
H         -1.70696       -1.63121        3.79895
H         -2.15867       -0.68469        5.23783
H         -3.39885       -1.55229        4.28545
H         -5.66602        0.87175        2.81982
H         -6.29460       -0.75866        2.54719
H         -5.18282       -0.43174        3.88788
H         -3.41245        4.01860        1.82359
C         -5.19613        3.26108        0.96875
C         -3.68881        3.47103        0.90520
C         -5.95075        4.56417        1.27561
H         -5.55255        2.82352        0.01304
H         -5.40296        2.57471        1.78452
H         -5.60330        4.97447        2.25070
H         -5.75459        5.31704        0.48302
C         -7.45419        4.31309        1.36955
H         -3.54341        4.16508        0.05670
H         -7.83856        3.92353        0.40343
H         -7.67437        3.57658        2.17260
H         -7.97970        5.26194        1.60774
C          0.92638       -2.73516       -4.85834
C          0.51350       -1.48555       -4.43431
C          0.48245       -1.50795       -3.05099
C          0.87670       -2.71552       -2.65454
N          1.15889       -3.55131       -3.75242
C          1.05854       -3.19805       -1.25176
N          0.67692       -2.21293       -0.21342
C          0.75565       -2.79991        1.16423
H          0.27930       -0.64828       -5.07092
H          1.05607       -3.03627       -5.89134
H          0.23939       -0.68392       -2.40676
H          2.11949       -3.49586       -1.14528
H          0.41849       -4.09892       -1.18369
C          2.18394       -3.25453        1.56156
C          0.34240       -1.71547        2.14337
C         -0.22444       -3.99670        1.34792
H          2.88594       -2.39505        1.57864
H          2.16736       -3.70071        2.58256
H          2.58779       -4.04038        0.89499
H         -0.66687       -1.34305        1.87300
H          0.35171       -2.11162        3.18292
H          1.06671       -0.88406        2.09427
H         -1.26807       -3.69790        1.11109
H          0.04273       -4.88147        0.73633
H         -0.20854       -4.35964        2.39972
