110
speciation2607.ct
Na         2.76313        3.26386        2.23122
Mg        -0.39437        7.63139       -2.06628
C         -1.04629        9.95441       -1.11346
C         -2.44077        9.46420       -2.98063
O         -1.15011        9.34467       -2.38942
C         -2.10857        9.55003       -0.09729
C         -2.74318       10.91222       -3.39376
H         -0.11005        9.58078       -0.67625
H         -0.92763       11.05173       -1.20678
H         -2.46322        8.86353       -3.91259
H         -3.24491        9.05750       -2.33358
H         -2.01983       11.24861       -4.16729
H         -3.76806       10.97881       -3.81523
H         -2.69172       11.60578       -2.53028
H         -2.16533        8.44928       -0.04977
H         -1.81700        9.93383        0.89984
H         -3.09906        9.97605       -0.35058
H         -2.62337        6.64610       -3.20583
C         -2.30455        5.04088       -1.80434
C         -1.76191        6.12341       -2.74158
C         -3.14519        5.61358       -0.66109
H         -2.94224        4.35068       -2.40246
H         -1.45588        4.46599       -1.38373
H         -2.51577        6.27974       -0.04239
H         -4.00509        6.19028       -1.06987
C         -3.67884        4.49595        0.23368
H         -1.20682        5.61927       -3.55995
H         -4.32840        3.80686       -0.34772
H         -2.83459        3.91914        0.66851
H         -4.27591        4.93010        1.06343
C          4.14212        5.80180        2.35613
C          4.53560        7.11461        2.24085
C          3.57086        7.73542        1.51150
C          2.61942        6.77625        1.14997
N          2.97248        5.56067        1.74306
C          1.35906        7.21193        0.31828
N          1.42129        7.29470       -1.20109
C          2.46465        8.12126       -1.90532
H          5.42774        7.55814        2.65334
H          4.70456        5.05407        2.89921
H          3.57783        8.77417        1.25656
H          1.02199        8.18012        0.72394
H          0.55617        6.49393        0.56697
C          3.89379        7.54396       -1.75546
C          2.12850        8.09921       -3.40810
C          2.48508        9.61024       -1.49786
H          3.94222        6.48272       -2.03302
H          4.60280        8.09556       -2.41231
H          4.31748        7.64157       -0.75708
H          1.13594        8.55394       -3.60524
H          2.88732        8.65333       -4.00497
H          2.09302        7.07421       -3.78229
H          1.57204       10.14140       -1.81489
H          2.63446        9.75154       -0.41666
H          3.31528       10.13363       -2.02407
Na         2.17373        5.04732       -1.20449
Mg         3.80677        2.41861       -3.05586
C          3.35859        4.71702       -4.10347
C          4.32460        3.37540       -5.78761
O          4.30514        3.71177       -4.40186
C          1.93877        4.48565       -4.65031
C          4.86359        4.52139       -6.65865
H          3.26994        4.68377       -3.01232
H          3.75793        5.72123       -4.35371
H          5.01677        2.53363       -5.94799
H          3.33634        3.03074       -6.15311
H          5.90882        4.76309       -6.37092
H          4.84998        4.21464       -7.72573
H          4.24527        5.43832       -6.56944
H          1.62893        3.44678       -4.46408
H          1.20654        5.14921       -4.15061
H          1.88882        4.68455       -5.73902
H          5.36985        0.88859       -4.64778
C          4.37635       -0.70082       -3.63944
C          4.97140        0.70253       -3.63906
C          3.24210       -0.80171       -4.66087
H          5.17769       -1.42054       -3.92041
H          4.02181       -0.97073       -2.62509
H          2.43449       -0.08484       -4.39949
H          3.63153       -0.54765       -5.67255
C          2.67287       -2.21617       -4.69940
H          5.87121        0.70703       -3.00696
H          3.46635       -2.94392       -4.97625
H          2.25949       -2.48840       -3.70551
H          1.86136       -2.27286       -5.45468
C          4.26706        0.00345        1.78538
C          5.13742       -0.39143        0.76374
C          5.23037        0.67730       -0.08492
C          4.39793        1.64252        0.42292
N          3.87574        1.30577        1.61480
C          4.01370        2.93082       -0.21220
N          2.92617        2.79993       -1.20788
C          1.61875        2.08538       -0.93989
H          5.64201       -1.34272        0.63103
H          3.97577       -0.65005        2.59420
H          5.83447        0.73469       -0.96293
H          3.65568        3.61667        0.52348
H          4.89061        3.46419       -0.63003
C          0.83911        2.60702        0.28974
C          0.68190        2.34808       -2.13075
C          1.78184        0.55920       -0.82609
H          0.64004        3.69964        0.22642
H         -0.14643        2.09446        0.37100
H          1.32303        2.34287        1.22645
H          1.08973        1.90731       -3.05736
H         -0.31591        1.87882       -1.95952
H          0.51067        3.43817       -2.25852
H          2.41426        0.18464       -1.64664
H          2.20207        0.25197        0.14156
H          0.79523        0.04879       -0.88175
