95
speciation1822.ct
Na         4.40952        1.86876        0.01744
Mg         3.28227       -0.23665       -1.73271
C          2.30429        1.50105       -3.91110
C          0.65125        0.09112       -2.90901
O          2.03461        0.28951       -3.19597
C          1.70960        2.79666       -3.32423
C         -0.19454       -0.23831       -4.14306
H          3.40502        1.63009       -3.93865
H          1.99331        1.40081       -4.97602
H          0.56958       -0.76270       -2.20745
H          0.19145        0.94813       -2.39412
H          0.15201       -1.17644       -4.62125
H         -1.25371       -0.36838       -3.82703
H         -0.17353        0.58877       -4.88311
H          2.02731        2.92994       -2.27298
H          2.06763        3.67208       -3.90541
H          0.60042        2.81619       -3.39520
H          7.05096       -2.37135        1.99068
C          8.05867       -2.56003        3.90522
C          7.80845       -1.81380        2.57701
C          6.86460       -2.68097        4.86524
H          8.40025       -3.59345        3.66338
H          8.88961       -2.05545        4.44209
H          7.21903       -3.22300        5.77243
H          6.51647       -1.67560        5.17747
C          5.69918       -3.48466        4.28848
H          8.76436       -1.88019        2.01552
H          5.25405       -2.96022        3.42299
H          6.03667       -4.49649        3.97529
H          4.91290       -3.60534        5.06451
C          3.34210        4.49252        1.46475
C          2.05391        4.86156        1.80180
C          1.21775        3.84534        1.40022
C          2.03947        2.87767        0.86292
N          3.31146        3.28262        0.88721
C          1.59602        1.54133        0.30240
N          2.74804        0.61569        0.07861
C          3.00645       -0.28800        1.22664
H          1.75501        5.78129        2.28187
H          4.23746        5.07145        1.63183
H          0.14387        3.78810        1.51504
H          1.05624        1.71626       -0.62898
H          0.86466        1.10048        0.99392
C          1.84570       -1.29133        1.43384
C          4.21027       -1.05418        0.83820
C          3.40063        0.46347        2.51225
H          1.50751       -1.70336        0.45361
H          2.16743       -2.14628        2.06291
H          0.97764       -0.83186        1.93891
H          5.06171       -0.37210        0.72068
H          4.47732       -1.88038        1.52443
H          3.93493       -1.43700       -0.11771
H          4.27081        1.13318        2.31160
H          2.57198        1.07527        2.90184
H          3.72189       -0.26331        3.29254
Na         5.52833       -0.98387       -4.08103
Mg         7.37682        0.27146        2.11518
H          7.56522        0.99923        4.79186
C          7.74159        3.04889        4.15235
C          7.99405        1.53867        3.91832
C          6.26092        3.44694        4.15422
H          8.15921        3.31348        5.15725
H          8.28539        3.65835        3.40155
H          5.81709        3.24872        3.15010
H          5.72219        2.82871        4.90181
C          6.12742        4.92989        4.56938
H          9.09848        1.41701        3.99091
H          5.11407        5.19378        4.94717
H          6.45331        5.60990        3.74792
H          6.77281        5.13081        5.44279
C          7.59491        1.85603       -0.26874
C          7.49443        2.07801       -1.62191
C          7.00722        0.91774       -2.17659
C          6.80922        0.02219       -1.13824
N          7.19518        0.60626        0.05376
C          6.30448       -1.41481       -1.35924
N          4.97348       -1.53864       -2.09485
C          4.47590       -2.95854       -2.26940
H          7.75843        2.99169       -2.14545
H          7.95661        2.57986        0.45102
H          6.82455        0.75312       -3.22871
H          6.27852       -1.95159       -0.38587
H          7.08434       -1.91479       -1.96195
C          4.02110       -3.68858       -0.96440
C          3.23561       -2.88301       -3.18346
C          5.51465       -3.88058       -2.93675
H          3.10428       -3.25931       -0.51058
H          3.71924       -4.73760       -1.18329
H          4.83944       -3.74014       -0.21487
H          3.49600       -2.43675       -4.16418
H          2.79564       -3.89102       -3.35696
H          2.45516       -2.25531       -2.70782
H          5.82753       -3.48955       -3.92223
H          6.40310       -4.01944       -2.28507
H          5.08236       -4.89775       -3.09531
