110
speciation2639.ct
Na        -0.78459        2.48773       -3.57659
Mg         4.69047        2.99346        0.05308
C          3.89599        3.45910        3.13362
C          3.52247        1.29286        2.45080
O          3.92081        2.59513        1.98409
C          4.95192        3.19196        4.23539
C          3.36222        0.32584        1.31195
H          4.01184        4.50488        2.81787
H          2.90730        3.43678        3.64286
H          4.28706        0.85349        3.12672
H          2.52516        1.33994        2.95575
H          4.32230        0.23343        0.78748
H          3.05935       -0.65823        1.72569
H          2.59143        0.68078        0.61780
H          5.99428        3.17748        3.83675
H          4.89672        3.98409        5.02419
H          4.76261        2.22969        4.77576
H          2.09868        5.34946        3.18432
C          0.12392        5.94502        2.87992
C          1.61422        6.06666        2.52339
C         -0.48256        4.61232        2.47691
H         -0.01032        6.07616        3.97884
H         -0.44564        6.74817        2.39481
H         -0.28542        4.46958        1.40717
H         -0.00128        3.77397        3.02453
C         -1.99389        4.63829        2.74786
H          1.90406        7.06230        2.91599
H         -2.19800        4.72812        3.83221
H         -2.47739        5.47177        2.19449
H         -2.49359        3.72294        2.42840
C          4.17173        1.93609       -2.67679
C          3.34495        1.52367       -3.69631
C          2.06985        1.64690       -3.22577
C          2.16551        2.14529       -1.93408
N          3.47606        2.29862       -1.56798
C          0.97363        2.49168       -1.08539
N         -0.27272        1.84656       -1.58175
C         -1.50749        2.14412       -0.81299
H          3.63737        1.18688       -4.68443
H          5.24808        1.97418       -2.76742
H          1.17504        1.42511       -3.79137
H          0.90360        3.59373       -1.07971
H          1.18713        2.14634       -0.06885
C         -1.84910        3.64444       -0.90969
C         -2.67787        1.37301       -1.45011
C         -1.42938        1.69142        0.66915
H         -2.00085        3.94734       -1.96565
H         -2.77789        3.87117       -0.34275
H         -1.05308        4.27616       -0.51269
H         -2.45536        0.28437       -1.48338
H         -3.60788        1.51827       -0.85657
H         -2.86941        1.71822       -2.48719
H         -1.63982        0.61270        0.82900
H         -0.50735        1.98870        1.20480
H         -2.27259        2.14834        1.18711
Na         0.04564       -0.26064       -1.48567
Mg         2.82292        5.89624        0.53159
C          6.53059        0.61920       -0.85934
C          7.71089        2.22563        0.42112
O          6.49838        1.94030       -0.27376
C          6.99818       -0.56283        0.02495
C          8.96474        2.20189       -0.48429
H          5.51675        0.34554       -1.19353
H          7.15429        0.63840       -1.78325
H          7.64623        3.23717        0.82391
H          7.84470        1.57019        1.30774
H          8.82890        2.86160       -1.36593
H          9.85124        2.55204        0.08684
H          9.20411        1.17858       -0.84578
H          6.93325       -1.50393       -0.56736
H          6.36293       -0.67986        0.92268
H          8.05814       -0.47655        0.34123
H          1.83524        7.51382       -1.45429
C         -0.06056        7.22588       -0.50854
C          1.32968        6.71273       -0.87729
C         -0.01813        8.47750        0.36873
H         -0.61262        7.47155       -1.44480
H         -0.60827        6.41776        0.00938
H          0.57612        8.28026        1.27839
H          0.47533        9.31334       -0.16945
C         -1.43798        8.89023        0.76604
H          1.16444        5.86637       -1.57366
H         -2.02234        9.17730       -0.13324
H         -1.96849        8.05465        1.27276
H         -1.39880        9.75142        1.46391
C          6.81004        8.62473        2.37926
C          5.46660        8.62058        2.66831
C          4.94114        7.44975        2.15596
C          5.92671        6.75731        1.58174
N          7.14683        7.45409        1.67929
C          5.83331        5.39342        0.94583
N          4.80059        5.20589       -0.10325
C          5.17550        5.92569       -1.39777
H          4.94043        9.41490        3.19099
H          7.52206        9.39953        2.64404
H          3.92380        7.14483        2.20991
H          5.68633        4.64947        1.72146
H          6.82864        5.12979        0.56937
C          6.63572        5.65991       -1.86969
C          4.26661        5.46565       -2.54428
C          5.00345        7.46424       -1.28036
H          6.84484        4.57206       -1.93320
H          6.81223        6.10461       -2.87675
H          7.38668        6.14664       -1.20998
H          3.20929        5.62923       -2.31766
H          4.49674        6.02529       -3.48114
H          4.42760        4.40732       -2.76981
H          3.98403        7.73690       -0.95832
H          5.72417        7.92779       -0.58651
H          5.20196        7.95899       -2.25754
