95
speciation1784.ct
Na         1.04521        0.01921        0.08710
Mg        -1.33211       -3.58325        3.88543
C         -0.37156       -5.83177        5.05692
C         -1.00113       -4.13576        6.55768
O         -0.44402       -4.43690        5.29787
C         -1.72473       -6.56474        5.08604
C         -1.05578       -2.62408        6.75247
H          0.06844       -5.93669        4.04698
H          0.34314       -6.30486        5.76177
H         -2.04926       -4.51268        6.68716
H         -0.35008       -4.54200        7.36790
H         -1.76091       -2.16707        6.02315
H         -1.40309       -2.37668        7.78097
H         -0.04603       -2.17973        6.60438
H         -2.49166       -6.05410        4.46646
H         -1.58836       -7.59417        4.68843
H         -2.12725       -6.65850        6.11521
H          6.63498        6.20783       -1.46277
C          7.16638        6.21429        0.62884
C          6.14917        6.47215       -0.49879
C          6.62635        6.62324        2.00388
H          7.44953        5.13973        0.64699
H          8.09290        6.80368        0.43609
H          7.40808        6.42875        2.77231
H          6.39792        7.71230        2.01856
C          5.37501        5.83062        2.36080
H          5.92852        7.55984       -0.52063
H          4.56360        6.05909        1.64041
H          5.59862        4.74337        2.33174
H          5.02924        6.10543        3.37756
C         -2.13052        0.57655       -0.83529
C         -3.45326        0.37655       -0.49565
C         -3.45614       -0.33140        0.68732
C         -2.13005       -0.54356        1.01371
N         -1.32479        0.01921        0.08710
C         -1.62606       -1.29869        2.21458
N         -2.13839       -2.69150        2.30244
C         -1.76679       -3.65651        1.24347
H         -4.31879        0.70937       -1.05242
H         -1.77424        1.10017       -1.71214
H         -4.32656       -0.66294        1.23632
H         -0.51398       -1.28628        2.23565
H         -1.96056       -0.75259        3.12252
C         -0.23606       -3.68143        1.03557
C         -2.18711       -5.04812        1.73127
C         -2.54081       -3.40889       -0.06665
H          0.26954       -3.87531        2.00996
H          0.06047       -4.48734        0.33136
H          0.14475       -2.72262        0.63366
H         -3.27416       -5.08483        1.96138
H         -1.96088       -5.82474        0.96772
H         -1.61920       -5.31147        2.63344
H         -3.63356       -3.38531        0.14415
H         -2.25193       -2.47982       -0.58052
H         -2.35454       -4.23249       -0.78814
Na        -4.25027       -2.67494        2.60919
Mg         4.24956        5.35034       -0.42915
H          2.68079        7.61233       -0.05880
C          1.17524        6.06423        0.04696
C          2.46630        6.64076       -0.55482
C          1.35281        5.74039        1.53147
H          0.33950        6.79188       -0.07910
H          0.90354        5.13625       -0.49599
H          2.18997        5.01995        1.63735
H          1.59639        6.66559        2.09953
C          0.08988        5.11262        2.12265
H          2.27255        6.85587       -1.62899
H         -0.75487        5.83444        2.10559
H         -0.19695        4.20495        1.54937
H          0.28111        4.81599        3.17578
C          4.21026       -1.06689        0.04862
C          5.53470       -0.69542        0.16909
C          5.55198        0.67672        0.29239
C          4.23474        1.08874        0.23257
N          3.41521        0.01921        0.08710
C          3.78020        2.52638        0.30385
N          4.41156        3.35892       -0.74688
C          4.07553        3.05988       -2.16863
H          6.39284       -1.35370        0.17712
H          3.84550       -2.08082       -0.04412
H          6.42486        1.30575        0.40933
H          2.67512        2.60745        0.27089
H          4.09583        2.92716        1.29026
C          2.55247        3.08634       -2.40669
C          4.72348        4.14910       -3.03740
C          4.65830        1.70863       -2.64856
H          2.13754        4.07028       -2.11337
H          2.31999        2.91490       -3.47897
H          2.03541        2.29058       -1.83120
H          5.82660        4.14809       -2.90265
H          4.50690        3.96556       -4.11381
H          4.33253        5.15321       -2.77266
H          5.74813        1.65858       -2.43354
H          4.15385        0.83607       -2.20453
H          4.51156        1.58176       -3.74106
