80
speciation860.ct
Na         3.35994        0.07586        2.90416
Mg         2.48084        4.30301       -1.09950
H          3.51574        6.66456       -0.21542
C          4.52065        6.62707       -2.13685
C          3.92402        5.90933       -0.92104
C          3.46785        7.44367       -2.88890
H          5.32153        7.31759       -1.78449
H          4.98052        5.87698       -2.81407
H          2.66862        6.76507       -3.24980
H          3.02125        8.20079       -2.20657
C          4.08446        8.17028       -4.08481
H          4.76473        5.40525       -0.39821
H          4.86140        8.89053       -3.74800
H          4.54621        7.44271       -4.78534
H          3.29535        8.73315       -4.62662
C          5.34034       -1.05462        0.83782
C          6.01003       -0.82877       -0.34532
C          5.65122        0.43331       -0.76002
C          4.76323        0.91852        0.16919
N          4.58809        0.01720        1.16071
C          4.05524        2.24276        0.06925
N          3.25127        2.37607       -1.16896
C          2.08019        1.46302       -1.33089
H          6.67438       -1.51641       -0.85202
H          5.38841       -1.95889        1.42804
H          5.97137        0.94419       -1.64700
H          3.42889        2.42242        0.96496
H          4.83723        3.03065        0.05861
C          1.06258        1.67690       -0.19628
C          1.45049        1.79715       -2.69240
C          2.43365       -0.04436       -1.36882
H          0.81654        2.73629       -0.09292
H          0.13323        1.09619       -0.37835
H          1.47519        1.35009        0.78043
H          2.17336        1.57460       -3.50752
H          0.54143        1.18444       -2.87357
H          1.17553        2.87064       -2.75797
H          3.23513       -0.25472       -2.10302
H          2.71813       -0.43495       -0.37727
H          1.53949       -0.64384       -1.64879
Na         4.54105        2.06999       -2.93337
Mg         4.48832        2.29790       -6.13895
H         -0.30011        4.31637       -0.90817
C         -0.21765        6.18237       -1.88257
C          0.41119        5.16688       -0.92350
C         -0.33108        5.61107       -3.29874
H         -1.24332        6.42802       -1.51495
H          0.38173        7.11538       -1.88670
H          0.68388        5.36312       -3.67104
H         -0.94513        4.68228       -3.28687
C         -0.98392        6.61027       -4.25286
H          0.39536        5.60790        0.09693
H         -2.02533        6.83443       -3.93449
H         -0.40099        7.55502       -4.28126
H         -1.01445        6.18061       -5.27660
C          8.99593        2.63654       -1.95409
C          9.89585        2.54362       -2.99326
C          9.17445        2.60345       -4.17141
C          7.88040        2.71458       -3.86113
N          7.69074        2.75029       -2.46458
C          6.76915        2.81592       -4.86895
N          5.74709        1.74809       -4.75137
C          6.12344        0.36202       -5.15466
H         10.96927        2.44500       -2.89538
H          9.24831        2.62244       -0.90293
H          9.58412        2.55645       -5.17099
H          7.17110        2.85709       -5.89960
H          6.26036        3.78488       -4.69985
C          7.13765       -0.29998       -4.20420
C          4.84038       -0.49208       -5.13604
C          6.68953        0.31451       -6.59488
H          6.74590       -0.33899       -3.17796
H          7.33604       -1.34773       -4.51313
H          8.11508        0.20778       -4.20581
H          4.08059       -0.08598       -5.83719
H          5.05815       -1.54303       -5.43350
H          4.40351       -0.50768       -4.11749
H          5.94945        0.70649       -7.32799
H          7.63252        0.89062       -6.69351
H          6.93450       -0.73227       -6.88457
