81
speciation790.ct
Na         0.75779       -0.49306        0.80602
Mg         3.75925       -1.57954       -0.97199
C          1.70067       -1.25184       -3.00093
C          2.00394       -3.57129       -2.51786
O          2.52247       -2.24264       -2.40308
C          0.31047       -1.16905       -2.36602
C          1.72095       -4.02924       -3.97450
H          2.21780       -0.28662       -2.88226
H          1.64319       -1.36012       -4.10464
H          2.75572       -4.27722       -2.11289
H          1.08902       -3.69118       -1.90313
H          2.64636       -4.03339       -4.58694
H          1.30629       -5.05979       -3.97264
H          0.96087       -3.39895       -4.48206
H          0.41177       -1.09877       -1.27022
H         -0.23196       -0.27976       -2.74450
H         -0.29663       -2.06623       -2.60950
H          2.54853       -3.82303        2.92866
C          1.14084       -4.63846        1.58528
C          2.05748       -3.49116        1.96911
C          1.97882       -5.83558        1.27531
H          0.42270       -4.91285        2.41373
H          0.53639       -4.30110        0.71993
H          2.73735       -5.50993        0.54319
H          2.44202       -6.20883        2.22080
C          1.16555       -6.92095        0.62447
H          1.20126       -2.87987        2.34352
H          0.36500       -7.27818        1.30462
H          0.72287       -6.51148       -0.30837
H          1.85826       -7.74768        0.37474
C          6.33369        0.61602       -0.59423
C          6.24799        1.95660       -0.86258
C          4.94104        2.29036       -0.73942
C          4.28784        1.10885       -0.43051
N          5.12380        0.04571       -0.25000
C          2.90570        0.94975       -0.10487
N          2.88513       -0.26633        0.70319
C          3.34415        0.03143        2.13631
H          7.06430        2.64564       -1.08760
H          7.31226        0.12040       -0.56415
H          4.49248        3.27319       -0.84241
H          2.43329        1.82466        0.36076
H          2.36478        0.77675       -1.05521
C          2.38182        1.02756        2.83610
C          3.26996       -1.22255        2.93993
C          4.81626        0.50112        2.39892
H          1.32609        0.70616        2.67874
H          2.55740        1.04306        3.93180
H          2.49616        2.06255        2.46948
H          3.94082       -2.00699        2.52169
H          3.50625       -1.13261        4.01151
H          2.20999       -1.37160        2.92673
H          5.56377       -0.23372        2.02893
H          5.01667        1.51360        2.00354
H          5.00962        0.56085        3.48956
Mg         4.12768       -2.10161        0.60568
C          5.30678       -5.07035        1.14616
C          6.50071       -5.68938        0.80462
C          7.22967       -4.75964        0.11860
C          6.43531       -3.64455        0.04711
N          5.26606       -3.80854        0.67004
C          6.78272       -2.37991       -0.58104
N          5.82535       -2.04814       -1.66999
C          6.20863       -2.63124       -3.00824
H          6.81449       -6.69358        1.04643
H          4.54347       -5.53783        1.72936
H          8.22727       -4.87571       -0.29478
H          7.83925       -2.36008       -0.89874
H          6.71102       -1.68820        0.26754
C          6.14193       -4.16995       -2.98075
C          5.24450       -2.12530       -4.08762
C          7.62964       -2.20121       -3.48880
H          5.17749       -4.50859       -2.54938
H          6.25935       -4.60010       -3.99606
H          6.97699       -4.58689       -2.38900
H          5.26645       -1.01748       -4.15550
H          5.51955       -2.54311       -5.08240
H          4.22771       -2.46304       -3.89295
H          7.71361       -1.09566       -3.55813
H          8.45848       -2.58178       -2.86183
H          7.83764       -2.62146       -4.49952
