110
speciation1910.ct
Na        -2.52376        2.67608        0.90319
Mg         4.49542       -4.08453        7.04542
C         -4.41125        4.27315       -1.04267
C         -2.96845        5.67622        0.25708
O         -3.54558        4.38815        0.08520
C         -3.84189        4.77603       -2.38000
C         -3.99998        6.75535        0.62129
H         -4.63286        3.20053       -1.17664
H         -5.39082        4.75538       -0.83110
H         -2.25403        5.61704        1.10194
H         -2.36517        5.97980       -0.62286
H         -4.52079        6.49300        1.56591
H         -3.48362        7.72990        0.76112
H         -4.75281        6.89280       -0.18299
H         -2.86942        4.29480       -2.59621
H         -4.54776        4.52802       -3.20115
H         -3.72108        5.87943       -2.38156
H          3.78081       -6.57990        7.51343
C          4.64861       -6.28160        9.46904
C          4.64937       -6.04385        7.95210
C          3.40744       -5.69244       10.14588
H          4.67873       -7.38062        9.65694
H          5.56112       -5.82882        9.91206
H          3.39247       -4.59508        9.97722
H          2.48587       -6.13829        9.71182
C          3.41624       -5.96374       11.65267
H          5.57010       -6.50680        7.53950
H          3.37309       -7.05647       11.85560
H          4.33373       -5.54636       12.11987
H          2.53179       -5.48533       12.12405
C          3.73321        1.78176        2.84309
C          3.55246        3.13450        3.01126
C          2.20548        3.37451        2.83859
C          1.62724        2.14752        2.54488
N          2.56078        1.18333        2.56110
C          0.17883        1.91823        2.23757
N         -0.26443        2.69410        1.05490
C          0.41149        2.41648       -0.25120
H          4.30143        3.86703        3.26849
H          4.66860        1.25170        2.96634
H          1.71142        4.33573        2.91608
H         -0.42158        2.23472        3.11954
H         -0.00794        0.83808        2.09149
C          0.21670        0.95074       -0.68045
C         -0.23286        3.33743       -1.28367
C          1.92876        2.74935       -0.27477
H         -0.86272        0.71278       -0.76459
H          0.69512        0.77001       -1.66587
H          0.69238        0.25579        0.04213
H         -0.08970        4.40291       -0.99344
H          0.22905        3.19045       -2.28675
H         -1.31807        3.13074       -1.35965
H          2.12222        3.77983        0.09492
H          2.54412        2.02454        0.27984
H          2.33299        2.67294       -1.30391
Na         0.01913        4.76148        1.50898
Mg         2.23916       -0.78028        2.53109
C         -3.23531        0.09931        2.25151
C         -4.45611        0.32579        0.21413
O         -3.79539        0.98670        1.28743
C         -2.32376       -1.00076        1.68464
C         -5.72552       -0.42412        0.65905
H         -2.62246        0.71731        2.93839
H         -4.03025       -0.34316        2.89027
H         -4.79255        1.08878       -0.50963
H         -3.77461       -0.34187       -0.34829
H         -6.46174        0.27924        1.10353
H         -6.19681       -0.91480       -0.22086
H         -5.50082       -1.22301        1.39533
H         -1.53889       -0.55644        1.04787
H         -1.83966       -1.55238        2.51703
H         -2.89659       -1.74478        1.09317
H          5.42024       -2.70260        9.19495
C          4.97084       -1.09209        7.82032
C          5.50346       -2.50177        8.10548
C          3.48029       -0.99216        8.15689
H          5.54653       -0.34759        8.41754
H          5.11252       -0.85165        6.74747
H          2.92724       -1.73734        7.55621
H          3.32330       -1.20560        9.23922
C          2.93264        0.40106        7.84619
H          6.58170       -2.53333        7.83550
H          3.42278        1.17005        8.48173
H          3.09913        0.65395        6.77690
H          1.84012        0.42130        8.04594
C          1.29030       -3.41499        1.51544
C          1.13349       -4.74180        1.86550
C          1.68316       -4.88848        3.12018
C          2.15736       -3.64216        3.48509
N          1.91754       -2.74389        2.50109
C          2.82572       -3.32063        4.79992
N          3.98865       -4.18684        5.08907
C          5.19641       -4.06423        4.22603
H          0.65097       -5.50736        1.27376
H          0.94134       -2.95296        0.60071
H          1.71960       -5.79709        3.70466
H          3.09371       -2.24832        4.87331
H          2.07321       -3.51094        5.59736
C          5.70606       -2.61143        4.16897
C          6.29728       -4.94369        4.84288
C          4.95039       -4.58310        2.79040
H          5.93243       -2.24766        5.18840
H          6.63543       -2.54516        3.56436
H          4.96080       -1.93765        3.69767
H          5.97375       -6.00628        4.87835
H          7.22982       -4.88601        4.23800
H          6.53442       -4.61205        5.87536
H          4.54992       -5.61976        2.81419
H          4.26429       -3.93760        2.21544
H          5.89747       -4.58920        2.20999
