83
speciation561.ct
Na         1.15039        1.91980        0.30434
Mg         4.31598        3.70168       -1.58623
C         -0.19981        3.08006        2.99599
C          2.13582        3.53898        2.96880
O          1.06498        2.78529        2.39364
C         -0.62171        4.56960        3.04596
C          2.39272        3.26362        4.46430
H         -0.98428        2.52435        2.44289
H         -0.23545        2.66178        4.02534
H          3.07623        3.28544        2.46850
H          2.00840        4.62163        2.78008
H          2.66983        2.20169        4.63495
H          3.23591        3.90137        4.80934
H          1.52095        3.52185        5.09907
H         -0.75017        5.01502        2.04805
H         -1.60845        4.65954        3.54153
H          0.08632        5.19062        3.63193
C         -1.86063        0.91787       -0.12606
C         -2.39473       -0.33509       -0.36681
C         -1.33539       -1.21972       -0.41703
C         -0.19627       -0.46939       -0.21024
N         -0.52298        0.82686       -0.02649
C          1.21945       -1.02555       -0.18174
N          2.24500        0.03300       -0.00400
C          3.24444       -0.20247        1.06483
H         -3.44042       -0.57976       -0.48802
H         -2.41746        1.83917       -0.02484
H         -1.38865       -2.28875       -0.58467
H          1.42145       -1.53889       -1.14478
H          1.25639       -1.79984        0.60861
C          4.07036       -1.48268        0.81308
C          4.21561        0.98356        1.03303
C          2.56891       -0.29277        2.45398
H          4.59065       -1.42645       -0.16672
H          4.84091       -1.60255        1.60732
H          3.43843       -2.39326        0.82033
H          3.65271        1.92416        1.04968
H          4.92797        0.94517        1.88605
H          4.79642        0.99576        0.08736
H          1.91250        0.57191        2.63657
H          1.95005       -1.20650        2.56320
H          3.33091       -0.33194        3.26100
Na         3.59933        0.09296       -1.94799
C          6.27753       -0.09211       -3.48187
C          4.77903        1.10867       -4.87300
O          4.92508        0.15166       -3.85097
C          7.03631        1.13246       -2.95023
C          5.39594        0.72600       -6.22041
H          6.25763       -0.84632       -2.66791
H          6.83399       -0.58333       -4.30755
H          3.69656        1.20005       -5.06192
H          5.20273        2.06388       -4.55445
H          4.95154       -0.21425       -6.60472
H          5.18600        1.54304       -6.94549
H          6.49821        0.62823       -6.15391
H          6.49093        1.58243       -2.09493
H          8.04504        0.81692       -2.61016
H          7.19409        1.89711       -3.73836
C          4.09834        4.21267       -4.52471
C          3.25582        3.96184       -5.59136
C          2.16820        3.27594       -5.08791
C          2.41487        3.11706       -3.73468
N          3.59317        3.67506       -3.40183
C          1.52423        2.47807       -2.72258
N          1.53655        3.25621       -1.47395
C          0.90569        4.60427       -1.48482
H          3.42488        4.24817       -6.61971
H          5.04455        4.73699       -4.56014
H          1.31091        2.91966       -5.64178
H          1.95215        1.48918       -2.48440
H          0.50028        2.27930       -3.10677
C         -0.55866        4.55843       -1.97455
C          0.95960        5.07502       -0.04958
C          1.68240        5.64077       -2.33923
H         -1.16025        3.85109       -1.36680
H         -1.01398        5.57113       -1.89663
H         -0.61747        4.26027       -3.04151
H          2.02161        5.13869        0.28989
H          0.47423        6.05969        0.08276
H          0.46055        4.29842        0.53897
H          2.74966        5.67907       -2.02964
H          1.61008        5.44310       -3.42388
H          1.25433        6.65364       -2.20017
