81
speciation352.ct
Na         2.87671        0.57263        3.18783
Mg         3.78042        2.39874       -2.97903
C          2.76552        0.63357        6.29540
C          0.59630        0.46495        5.40972
O          1.88897        0.99826        5.24346
C          3.03793       -0.87322        6.39597
C         -0.27796        0.88024        4.22635
H          3.73520        1.13399        6.08974
H          2.40918        1.04057        7.26719
H          0.58599       -0.64341        5.43094
H          0.12438        0.87700        6.33068
H          0.12703        0.44673        3.28635
H         -1.31328        0.50481        4.37341
H         -0.30542        1.98619        4.13583
H          3.37516       -1.27097        5.41599
H          3.83149       -1.05385        7.15089
H          2.13938       -1.42832        6.73471
H          3.23421       -0.24978       -3.50827
C          1.33073        0.78892       -3.42385
C          2.71642        0.51276       -2.88813
C          1.48709        1.38006       -4.81081
H          0.72604       -0.14326       -3.45079
H          0.83446        1.51141       -2.74589
H          2.14259        2.27168       -4.73083
H          1.94841        0.61678       -5.47476
C          0.16912        1.82471       -5.41226
H          2.58509        0.08914       -1.87193
H         -0.52467        0.96383       -5.49993
H         -0.28475        2.61633       -4.77985
H          0.36807        2.24045       -6.42220
C          4.44015       -1.03600        0.72805
C          5.09428       -0.90831       -0.48346
C          4.93533        0.39787       -0.88275
C          4.17292        1.01091        0.09051
N          3.88574        0.13782        1.08790
C          3.78282        2.45919        0.08159
N          2.99518        2.81619       -1.12569
C          2.45092        4.20168       -1.12338
H          5.64854       -1.67519       -1.00475
H          4.41472       -1.92981        1.33559
H          5.33793        0.85857       -1.77604
H          3.19732        2.63833        1.00470
H          4.71687        3.05301        0.11736
C          3.57469        5.25146       -1.00551
C          1.72363        4.42362       -2.45936
C          1.42758        4.42095        0.01674
H          4.31368        5.11343       -1.81397
H          3.16116        6.27933       -1.08633
H          4.09421        5.18867       -0.02745
H          0.86593        3.73121       -2.56116
H          1.32313        5.45966       -2.52530
H          2.41642        4.26584       -3.31182
H          0.60517        3.67675       -0.04535
H          1.89206        4.35702        1.02067
H          0.98228        5.43807       -0.05527
Mg         3.94924        1.58524       -9.42802
C          5.85265        4.18722       -4.02179
C          6.53190        4.80922       -5.05039
C          5.99168        4.33361       -6.21214
C          5.00058        3.43956       -5.84893
N          4.89882        3.34988       -4.48561
C          4.18792        2.72404       -6.89045
N          5.02442        1.95787       -7.83794
C          5.63081        0.68868       -7.36973
H          7.33488        5.53288       -4.96822
H          6.05627        4.36099       -2.97792
H          6.28640        4.60987       -7.21924
H          3.39531        2.09711       -6.47739
H          3.66634        3.50865       -7.48059
C          4.62796       -0.19656       -6.59953
C          6.09130       -0.09437       -8.61467
C          6.86768        0.96780       -6.49752
H          3.73184       -0.40569       -7.22409
H          5.09561       -1.16364       -6.31855
H          4.31370        0.28773       -5.65449
H          6.83010        0.48971       -9.20221
H          6.56304       -1.05905       -8.32106
H          5.22637       -0.32655       -9.27457
H          7.59249        1.60175       -7.05263
H          6.59832        1.47719       -5.55470
H          7.37087        0.01770       -6.21764
