68
speciation57.ct
Na         1.47466        0.15785       -0.24133
Mg        -0.09882        2.46066        1.71476
C         -0.32950       -2.59924        0.73094
C         -0.40302       -2.11629       -1.57105
O         -0.04274       -1.62272       -0.27380
C         -0.09523       -2.07106        2.13125
C         -1.83741       -2.70526       -1.71559
H         -1.41576       -2.84756        0.74894
H          0.26567       -3.52806        0.57679
H         -0.37131       -1.25262       -2.26343
H          0.33225       -2.87123       -1.92112
H         -2.61116       -2.00429       -1.33496
H         -2.05802       -2.91761       -2.78392
H         -1.94665       -3.68201       -1.19176
H         -0.72056       -1.16974        2.30267
H         -0.40379       -2.85112        2.86663
H          0.97539       -1.83894        2.27907
C          2.33094        4.39038       -3.32232
C          2.12900        5.67089       -2.87264
C          1.80659        5.56449       -1.53172
C          1.85123        4.21460       -1.23074
N          2.15654        3.51716       -2.31605
C          1.58714        3.54238        0.07238
N          0.69618        2.35355       -0.06236
C         -0.55072        2.51342       -0.86245
H          2.21528        6.57938       -3.45764
H          2.61505        4.10542       -4.32895
H          1.59439        6.38626       -0.86101
H          2.49863        3.24240        0.58934
H          1.21628        4.29539        0.79577
C         -0.37319        2.23106       -2.39210
C         -1.48379        1.40441       -0.38413
C         -1.18905        3.91646       -0.61818
H          0.23911        1.31763       -2.56551
H         -1.34911        2.07033       -2.89206
H          0.03315        3.07118       -2.97390
H         -1.67577        1.46583        0.70140
H         -2.44396        1.41321       -0.94023
H         -0.99728        0.44216       -0.59469
H         -0.71623        4.40018        0.22995
H         -0.93447        4.66316       -1.40851
H         -2.14905        3.92846       -0.06968
Na         2.51614        1.17636       -2.40682
C          2.66120       -1.92851       -3.60036
C          3.14866       -3.20905       -3.38768
C          3.63592       -3.23781       -2.10007
C          3.47458       -1.97185       -1.59405
N          2.87573       -1.16444       -2.49759
C          3.99590       -1.51835       -0.25636
N          3.80578       -0.07080       -0.10376
C          4.97984        0.76892       -0.55961
H          3.15183       -4.02026       -4.09294
H          2.28047       -1.54706       -4.52227
H          4.11486       -4.07691       -1.60332
H          5.02699       -1.84486       -0.14797
H          3.39679       -2.04758        0.52078
C          5.30175        0.66326       -2.07654
C          4.69607        2.21523       -0.19678
C          6.29596        0.41464        0.18195
H          4.47552        0.92266       -2.72806
H          6.09523        1.40173       -2.34576
H          5.65393       -0.35716       -2.33204
H          5.56034        2.88443       -0.38743
H          3.88350        2.55843       -0.83541
H          4.44335        2.28810        0.88573
H          6.18229        0.49866        1.28598
H          6.69743       -0.58781       -0.06613
H          7.10736        1.12512       -0.12235
