80
speciation964.ct
Na         2.49735       -1.24969        1.28008
Mg         3.15049       -0.36723       -1.65358
H          3.88865        1.25637       -3.75480
C          3.17394        2.89309       -2.53333
C          3.10408        1.42369       -2.98862
C          4.51983        3.28430       -1.91771
H          3.01348        3.54238       -3.42578
H          2.35436        3.10461       -1.81719
H          4.72929        2.66425       -1.02178
H          5.32878        3.12839       -2.66564
C          4.50084        4.76001       -1.50926
H          2.13521        1.33588       -3.52306
H          4.26077        5.40467       -2.38315
H          3.73413        4.92576       -0.72228
H          5.49120        5.06483       -1.11080
C          1.18144        0.17732        3.72317
C          0.40139        1.31294        3.81645
C          0.22950        1.79487        2.52875
C          0.89870        0.91718        1.70798
N          1.47575       -0.04662        2.44114
C          1.01553        0.97507        0.20543
N          1.55055       -0.30809       -0.30447
C          0.52386       -1.26340       -0.78492
H          0.01005        1.74125        4.72519
H          1.52913       -0.44968        4.53101
H         -0.32692        2.67128        2.22520
H          1.69685        1.80615       -0.05713
H          0.02398        1.20696       -0.23983
C          0.01270       -0.73495       -2.14948
C          1.26998       -2.59927       -0.84078
C         -0.70787       -1.52964        0.14090
H          0.81390       -0.18587       -2.67192
H         -0.38789       -1.51483       -2.82335
H         -0.79504        0.01892       -1.99195
H          1.49378       -2.92271        0.20566
H          0.67696       -3.41343       -1.29864
H          2.23342       -2.47739       -1.35395
H         -0.40718       -1.84023        1.16370
H         -1.40447       -0.66973        0.22613
H         -1.30750       -2.37181       -0.28422
Na         3.96437       -3.78390       -1.35792
Mg         8.02152       -1.61345       -5.20586
H          9.36032        0.71633       -5.12311
C          8.55442        0.69736       -7.11855
C          9.20193       -0.02683       -5.93803
C          8.34268       -0.25045       -8.30132
H          7.57847        1.11658       -6.79160
H          9.21039        1.53880       -7.44020
H          9.32508       -0.64764       -8.63889
H          7.69938       -1.10147       -7.98932
C          7.67683        0.47538       -9.46871
H         10.19844       -0.41113       -6.24242
H          6.67461        0.84797       -9.16703
H          8.29981        1.33487       -9.79749
H          7.55531       -0.22211      -10.32413
C          7.29711       -4.43136       -4.74728
C          6.36777       -5.29533       -4.21310
C          5.36481       -4.51203       -3.68225
C          5.73151       -3.18881       -3.90037
N          6.91166       -3.14712       -4.57162
C          4.94952       -1.95206       -3.46749
N          4.65866       -1.85081       -2.00762
C          5.81631       -1.66469       -1.08434
H          6.41667       -6.37829       -4.21173
H          8.21640       -4.73318       -5.23733
H          4.48148       -4.88733       -3.18861
H          3.97674       -2.00093       -3.99607
H          5.46050       -1.03783       -3.82598
C          6.52268       -0.32537       -1.34596
C          5.26748       -1.68640        0.35543
C          6.86201       -2.80403       -1.16876
H          5.81580        0.51760       -1.21579
H          7.37754       -0.19450       -0.64874
H          6.93695       -0.29091       -2.37384
H          4.72529       -2.63779        0.55556
H          6.08852       -1.61045        1.10188
H          4.57395       -0.84025        0.52023
H          6.39261       -3.80033       -1.02062
H          7.42413       -2.78598       -2.11721
H          7.63757       -2.67505       -0.38286
