81
speciation612.ct
Na         2.42111       -0.66969       -7.63237
Mg         3.91680        2.66409       -2.14597
C          2.70181        4.79594       -0.32337
C          2.52143        2.73801        0.73271
O          2.90791        3.37928       -0.47420
C          3.48633        5.47513        0.82286
C          2.54709        1.25921        0.60852
H          3.00441        5.30628       -1.24841
H          1.61704        5.02541       -0.21315
H          3.20506        2.98880        1.57244
H          1.46500        3.00608        1.01027
H          3.57477        0.95970        0.33766
H          2.26992        0.78173        1.57203
H          1.78216        1.00295       -0.13574
H          4.57320        5.27836        0.72878
H          3.31912        6.57449        0.79597
H          3.13498        5.14633        1.82478
H          6.31409        1.79349       -2.77280
C          6.37970        0.87284       -0.82260
C          5.95954        2.02466       -1.74466
C          5.69719       -0.44959       -1.16915
H          7.48449        0.74014       -0.89140
H          6.12609        1.15241        0.22111
H          4.61593       -0.30870       -1.08194
H          5.93566       -0.76412       -2.20824
C          6.08938       -1.55526       -0.19193
H          6.49695        2.91107       -1.36355
H          7.16773       -1.79889       -0.28883
H          5.87741       -1.23953        0.85295
H          5.49283       -2.46763       -0.40613
C          2.59244       -0.16124       -2.60909
C          2.34482       -1.22164       -3.45176
C          2.76794       -0.83898       -4.68496
C          3.25895        0.44733       -4.55264
N          3.13347        0.90516       -3.25622
C          3.94782        1.14573       -5.68613
N          3.14057        1.23466       -6.93678
C          3.91526        1.71500       -8.12054
H          1.95012       -2.19468       -3.17986
H          2.40963       -0.25035       -1.57149
H          2.77145       -1.46301       -5.56941
H          4.84048        0.51699       -5.86005
H          4.24085        2.14459       -5.33328
C          5.12912        0.78452       -8.39147
C          3.02347        1.69443       -9.38803
C          4.34377        3.17564       -7.93012
H          4.79489       -0.27704       -8.36441
H          5.58600        0.97093       -9.38657
H          5.93088        0.92206       -7.64125
H          2.13271        2.34602       -9.26322
H          3.60054        2.09392      -10.25673
H          2.69162        0.67178       -9.65682
H          3.45243        3.82654       -7.79768
H          4.96165        3.27388       -7.04013
H          4.93953        3.54431       -8.79131
Mg         8.77515        5.10163       -1.94619
C          2.94489        4.77710       -3.98777
C          3.12371        6.04524       -4.51203
C          4.34959        6.46789       -4.07860
C          4.87391        5.44620       -3.30725
N          4.01727        4.39016       -3.26179
C          6.19898        5.59054       -2.60688
N          7.19914        4.58074       -2.97565
C          7.70902        4.49623       -4.35836
H          2.42564        6.60783       -5.10946
H          2.05019        4.18049       -4.10113
H          4.80356        7.43428       -4.27716
H          6.62485        6.60451       -2.77550
H          6.01656        5.50953       -1.51494
C          8.34547        5.82131       -4.82218
C          8.78192        3.39370       -4.35690
C          6.62500        4.06921       -5.34916
H          9.15971        6.12665       -4.12881
H          8.77983        5.70547       -5.83971
H          7.59147        6.63321       -4.87058
H          8.33811        2.43203       -4.01823
H          9.20645        3.23864       -5.37148
H          9.60824        3.65106       -3.66029
H          6.16559        3.11982       -5.00932
H          5.85139        4.84382       -5.50171
H          7.07528        3.90988       -6.34874
