84
speciation1851.ct
Na        -4.06866       -2.85421        3.03010
Mg        -3.22465       -1.23598       -2.69004
C         -7.24356       -3.33927        3.38501
C         -6.45685       -4.21204        1.37752
O         -6.08407       -3.75965        2.66844
C         -8.12356       -4.53193        3.80865
C         -5.22483       -4.44536        0.55015
H         -6.91549       -2.82659        4.31073
H         -7.85337       -2.60021        2.81127
H         -6.96634       -5.20152        1.44642
H         -7.09682       -3.47442        0.83781
H         -4.55925       -5.17348        1.05982
H         -5.51033       -4.84706       -0.44658
H         -4.71914       -3.47467        0.43038
H         -7.51909       -5.26987        4.37583
H         -8.96486       -4.18781        4.44688
H         -8.57896       -5.04154        2.93217
H         -3.32020       -3.89070       -2.75185
C         -3.97619       -3.70758       -4.76529
C         -3.95493       -3.18552       -3.32332
C         -2.58016       -3.72325       -5.40138
H         -4.36840       -4.75224       -4.74740
H         -4.66221       -3.08661       -5.37631
H         -2.18916       -2.68516       -5.44806
H         -1.88625       -4.34206       -4.78977
C         -2.62479       -4.30762       -6.81579
H         -4.98393       -3.25547       -2.91261
H         -2.96712       -5.36534       -6.79128
H         -3.31434       -3.72053       -7.45863
H         -1.61041       -4.28022       -7.26770
C         -0.91976       -3.24000        2.86446
C          0.26741       -3.37022        2.17751
C         -0.03614       -3.22275        0.85855
C         -1.39608       -2.98599        0.79160
N         -1.96625       -3.01639        2.03186
C         -2.07163       -2.73711       -0.52631
N         -2.65057       -1.38546       -0.68041
C         -1.73552       -0.23158       -0.67039
H          1.25037       -3.55246        2.59273
H         -0.98067       -3.31702        3.92873
H          0.65708       -3.25782        0.03008
H         -1.36363       -2.92070       -1.35683
H         -2.86222       -3.49431       -0.63561
C         -0.73375       -0.33817       -1.82921
C         -2.62959        1.01205       -0.83202
C         -0.95496       -0.00248        0.64991
H         -1.27034       -0.59280       -2.76094
H         -0.14382        0.59466       -1.95591
H         -0.01371       -1.16307       -1.65606
H         -3.28629        1.13933        0.05486
H         -2.03224        1.94282       -0.96455
H         -3.29915        0.87652       -1.68908
H         -1.63189       -0.04917        1.52567
H         -0.13380       -0.72963        0.77458
H         -0.45049        0.98552        0.64041
Na        -4.10030       -1.09691        0.86586
C         -4.80009       -0.53688        4.73595
C         -3.23828       -1.78718        5.95829
O         -4.18504       -1.80330        4.89389
C         -3.84570        0.53302        4.19678
C         -2.79623       -3.19297        6.33549
H         -5.62633       -0.66262        4.00783
H         -5.28471       -0.20010        5.68147
H         -2.33653       -1.19432        5.69352
H         -3.70141       -1.36798        6.88397
H         -2.29668       -3.68694        5.49270
H         -2.07738       -3.14037        7.18372
H         -3.66422       -3.81381        6.63049
H         -3.37117        0.17798        3.25991
H         -4.41295        1.46393        3.98770
H         -3.05827        0.78446        4.93755
H         -3.95828       -0.02528       -5.10358
C         -3.23573        1.83545       -4.24896
C         -3.92180        0.44193       -4.09834
C         -1.77795        1.70740       -4.72080
H         -3.80323        2.46899       -4.96684
H         -3.25454        2.36791       -3.27602
H         -1.26361        1.06203       -4.01227
H         -1.72534        1.23924       -5.72707
C         -0.99283        3.02306       -4.72213
H         -4.96904        0.62363       -3.77094
H          0.09135        2.78636       -4.81446
H         -1.13128        3.57296       -3.76616
H         -1.27831        3.67522       -5.57266
