83
speciation590.ct
Na         2.36531        0.59212        1.08274
Mg         0.24210        1.58422       -1.10929
C          4.73375        0.72078        3.23084
C          3.07414       -0.85316        3.80620
O          3.40385        0.27673        3.00335
C          5.81358       -0.20215        2.64922
C          2.94044       -0.53942        5.31313
H          4.88522        1.66478        2.70541
H          4.88171        1.03865        4.28565
H          2.09981       -1.26007        3.46728
H          3.81374       -1.64551        3.65480
H          2.13685        0.20012        5.49328
H          2.69576       -1.47482        5.86592
H          3.88869       -0.16744        5.75021
H          5.62944       -0.23464        1.56170
H          6.79939        0.25643        2.87460
H          5.86822       -1.26167        2.98086
C         -0.49670        3.51439       -3.46849
C          0.05252        4.77675       -3.66715
C          1.06567        4.92158       -2.76885
C          1.13259        3.73409       -2.08647
N          0.10655        2.94455       -2.41201
C          2.20425        3.25574       -1.16107
N          1.65785        2.46555       -0.01996
C          1.63027        3.28539        1.22683
H         -0.27264        5.49040       -4.41950
H         -1.32588        3.07730       -4.01898
H          1.72921        5.77861       -2.65067
H          2.80512        2.54540       -1.77045
H          2.89597        4.06627       -0.94739
C          0.77186        4.54497        1.07461
C          1.02649        2.48929        2.41255
C          3.10837        3.60530        1.58572
H         -0.26948        4.23900        0.83532
H          0.76442        5.11695        2.02605
H          1.14176        5.21578        0.27682
H          1.55765        1.58039        2.68577
H          1.07240        3.11528        3.33570
H         -0.02472        2.21295        2.22132
H          3.67888        2.67713        1.43148
H          3.61029        4.34209        0.92537
H          3.24396        3.99047        2.61153
Na         2.74848       -2.95393        1.27529
C          2.43061       -5.48234        2.95592
C          4.33868       -4.23895        3.63894
O          3.55949       -4.71589        2.54815
C          1.48757       -4.79201        3.95829
C          5.11489       -5.33425        4.37053
H          1.83734       -5.68658        2.04081
H          2.74601       -6.47702        3.33548
H          5.09385       -3.53803        3.22831
H          3.74059       -3.67014        4.37179
H          5.82699       -5.83430        3.68288
H          5.68868       -4.86952        5.20223
H          4.43229       -6.08460        4.81719
H          1.17427       -3.79864        3.57424
H          0.58627       -5.42079        4.11135
H          1.95582       -4.67737        4.95830
C         -2.10272        0.64741       -0.00381
C         -2.74596       -0.39162        0.64284
C         -1.80732       -1.41569        0.72093
C         -0.66364       -0.94905        0.11042
N         -0.83739        0.29796       -0.33126
C          0.57244       -1.79904       -0.11852
N          1.92000       -1.15400       -0.02500
C          2.63376       -1.11071       -1.34749
H         -3.75616       -0.38796        1.00518
H         -2.53638        1.61985       -0.23150
H         -1.98247       -2.38576        1.15520
H          0.53036       -2.66767        0.57644
H          0.38795       -2.26325       -1.10178
C          1.85019       -0.26519       -2.37180
C          4.01758       -0.46245       -1.15254
C          2.87794       -2.51928       -1.95892
H          1.72744        0.73980       -1.98416
H          2.39774       -0.18207       -3.33519
H          0.84152       -0.66613       -2.59229
H          4.64664       -1.07884       -0.47771
H          4.54656       -0.37775       -2.12953
H          3.92965        0.55748       -0.72639
H          3.53541       -3.12801       -1.30619
H          1.96035       -3.10280       -2.15857
H          3.37689       -2.41664       -2.94925
