83
speciation698.ct
Na         0.23298        7.16157        0.33881
Mg        -1.58632        3.70158        3.66967
C          0.08305        2.66857        5.67898
C         -1.36890        4.43057        6.37614
O         -0.61031        3.86240        5.31763
C         -0.76221        1.56825        6.33550
C         -0.48725        5.01023        7.49308
H          0.50384        2.23660        4.75343
H          0.96701        2.90720        6.30673
H         -1.95888        5.27465        5.96422
H         -2.11349        3.71866        6.78087
H          0.12949        5.84851        7.10533
H         -1.13136        5.39207        8.31327
H          0.18261        4.24358        7.93298
H         -1.60586        1.29414        5.67896
H         -0.13914        0.66332        6.48742
H         -1.13319        1.87131        7.33657
C         -2.12858        7.89024        2.49892
C         -3.16187        8.81172        2.52050
C         -3.05944        9.54953        1.35861
C         -1.95405        9.05712        0.69790
N         -1.40539        8.04009        1.37251
C         -1.39205        9.54889       -0.59480
N         -0.05784        8.95340       -0.83651
C          1.11318        9.77127       -0.43424
H         -3.91081        8.93167        3.29313
H         -1.92694        7.14729        3.25881
H         -3.70294       10.36093        1.04285
H         -1.34981       10.65311       -0.56820
H         -2.08929        9.26685       -1.41122
C          1.08802       10.09165        1.07691
C          2.36665        8.93586       -0.72133
C          1.22100       11.07052       -1.26042
H          1.04169        9.15451        1.67295
H          2.00844       10.63696        1.37596
H          0.21588       10.72253        1.34481
H          2.39484        8.62715       -1.78939
H          3.29454        9.49888       -0.48618
H          2.36404        8.03519       -0.08621
H          1.24400       10.83693       -2.34596
H          0.39103       11.77558       -1.06496
H          2.15818       11.60864       -0.99864
Na        -1.34187        5.43207        0.72126
C         -4.15303        4.39581        2.88172
C         -4.22194        2.75573        4.62533
O         -3.48143        3.35651        3.57196
C         -4.63684        5.53463        3.77654
C         -5.45452        1.99026        4.12193
H         -3.41825        4.82667        2.17175
H         -4.96997        3.99169        2.24542
H         -3.57983        1.99814        5.10442
H         -4.48945        3.48358        5.41705
H         -5.15349        1.20857        3.39191
H         -5.96253        1.49696        4.97809
H         -6.19009        2.66973        3.64503
H         -3.79925        5.89821        4.40544
H         -5.00696        6.36596        3.14224
H         -5.47720        5.20452        4.42077
C          2.79577        5.46044       -0.44281
C          3.57532        4.37901       -0.08746
C          2.97152        3.80576        1.00559
C          1.83177        4.55122        1.26415
N          1.73659        5.57405        0.39538
C          0.85034        4.26305        2.37337
N         -0.51541        3.87841        1.92961
C         -0.66021        2.62411        1.12805
H          4.49487        4.05680       -0.57352
H          3.01030        6.13098       -1.26330
H          3.32043        2.93234        1.53761
H          1.26763        3.47437        3.02468
H          0.77990        5.18261        2.98912
C         -0.03160        1.41881        1.85228
C         -2.15807        2.32647        0.94710
C         -0.09306        2.76853       -0.30592
H         -0.48399        1.31420        2.86161
H         -0.22005        0.47929        1.29199
H          1.06604        1.52885        1.95867
H         -2.68330        3.18554        0.47588
H         -2.31190        1.43314        0.30551
H         -2.62401        2.07628        1.90867
H         -0.54031        3.64974       -0.81520
H          1.00109        2.84803       -0.34548
H         -0.33294        1.86713       -0.91087
