84
speciation1852.ct
Na         1.27185        0.24260        0.21193
Mg        -3.19210       -1.36126        1.88542
C          1.29052        2.44260       -1.92072
C         -0.78746        2.30961       -0.74558
O          0.38709        1.63123       -1.17310
C          1.64841        3.79916       -1.29177
C         -1.73244        2.67047       -1.89749
H          2.23380        1.86749       -2.02160
H          0.91591        2.58597       -2.95844
H         -1.34956        1.61718       -0.09604
H         -0.55805        3.19654       -0.12595
H         -2.04690        1.75523       -2.44174
H         -2.63737        3.16454       -1.48414
H         -1.25776        3.37790       -2.60758
H          2.00945        3.65885       -0.25243
H          2.44450        4.28894       -1.88943
H          0.77871        4.49249       -1.29689
H         -3.78044       -1.77326       -0.70296
C         -1.63074       -2.13380       -0.69122
C         -2.87195       -1.35781       -0.23284
C         -1.62398       -3.60494       -0.23367
H         -1.55825       -2.09749       -1.79843
H         -0.72554       -1.62615       -0.30567
H         -0.69743       -4.08747       -0.60023
H         -1.62783       -3.66759        0.87633
C         -2.82264       -4.38124       -0.77801
H         -2.77063       -0.31108       -0.58780
H         -3.77085       -3.98289       -0.36329
H         -2.84476       -4.31378       -1.88621
H         -2.74657       -5.44720       -0.48103
C         -2.47528       -2.95360        4.15533
C         -1.47540       -3.49929        4.93022
C         -0.28272       -3.08840        4.37423
C         -0.60462       -2.31243        3.28168
N         -1.95127       -2.23701        3.14311
C          0.40652       -1.65024        2.38050
N          0.14314       -0.22584        2.09600
C          0.19814        0.75796        3.20120
H         -1.60504       -4.12371        5.79970
H         -3.53652       -3.06942        4.32297
H          0.71175       -3.34419        4.72342
H          0.37420       -2.20120        1.43014
H          1.43962       -1.79753        2.76201
C          1.56250        0.74713        3.91280
C         -0.03418        2.15344        2.59725
C         -0.92700        0.54162        4.24709
H          2.37879        0.94915        3.18961
H          1.58543        1.52717        4.70600
H          1.74406       -0.23069        4.40597
H         -1.03353        2.20564        2.11879
H         -0.01077        2.94246        3.38039
H          0.74128        2.38615        1.83852
H         -1.92616        0.52121        3.76126
H         -0.79174       -0.38281        4.83588
H         -0.93865        1.36458        4.99284
Na        -1.81890        0.05279        1.49863
C          2.99408       -1.67141       -1.44358
C          3.86133       -1.25532        0.74126
O          3.09572       -0.75890       -0.34782
C          2.54034       -3.09851       -1.09454
C          5.35408       -1.41611        0.40680
H          2.25127       -1.25322       -2.15320
H          3.95036       -1.70507       -2.01034
H          3.79688       -0.51584        1.56368
H          3.44236       -2.19712        1.15072
H          5.79485       -0.44124        0.10789
H          5.89675       -1.78941        1.30170
H          5.52018       -2.15244       -0.40705
H          1.57735       -3.07326       -0.54822
H          2.40770       -3.68711       -2.02726
H          3.30081       -3.63879       -0.49096
H         -5.41271       -1.73389        3.21047
C         -6.14650        0.01984        2.23252
C         -5.00488       -0.74477        2.91329
C         -5.79795        1.46351        1.85655
H         -6.46370       -0.54118        1.32850
H         -7.01320        0.05975        2.93144
H         -6.68839        1.91985        1.37023
H         -5.56325        2.05433        2.76946
C         -4.62492        1.53459        0.89303
H         -4.71581       -0.21542        3.84814
H         -3.71654        1.16138        1.39837
H         -4.83492        0.92355       -0.00956
H         -4.44787        2.58596        0.58829
