80
speciation942.ct
Na        -4.55323       -0.19136        0.26835
Mg        -0.15616       -3.37965        3.33665
H         -0.32775       -4.99652        5.38413
C          0.86432       -3.31136        6.07054
C          0.49151       -4.34435        5.01340
C          1.37177       -3.98654        7.35025
H          1.65440       -2.64781        5.65778
H         -0.03388       -2.69767        6.29810
H          0.58720       -4.66154        7.75706
H          2.27593       -4.59011        7.11698
C          1.72949       -2.95327        8.41518
H          1.37054       -4.96792        4.74459
H          2.51788       -2.26683        8.03954
H          0.83208       -2.36101        8.69475
H          2.11032       -3.46959        9.32171
C         -4.90994       -1.79758        3.20203
C         -4.22249       -2.38995        4.24010
C         -2.87865       -2.25945        3.95096
C         -2.80277       -1.58962        2.74301
N         -4.04556       -1.31838        2.29047
C         -1.53048       -1.21388        2.01861
N         -0.78796       -2.43860        1.70100
C          0.50310       -2.35385        0.99578
H         -4.65709       -2.86351        5.11035
H         -5.98576       -1.72316        3.11225
H         -2.05519       -2.61343        4.55541
H         -1.78524       -0.67005        1.08562
H         -0.93875       -0.55525        2.68659
C          1.47135       -1.41449        1.74121
C          1.12624       -3.76836        1.00109
C          0.30018       -1.94568       -0.47318
H          1.57838       -1.75304        2.79695
H          2.47752       -1.42434        1.27131
H          1.10517       -0.36869        1.74346
H          0.46269       -4.49881        0.48963
H          2.10896       -3.76856        0.48027
H          1.30037       -4.13213        2.03612
H         -0.39470       -2.66227       -0.96633
H         -0.11955       -0.92598       -0.56609
H          1.26674       -1.98370       -1.02246
Na        -8.20966        4.04779       -2.67347
Mg        -1.90426       -3.59952        0.60938
H         -3.89303       -4.45336       -0.89631
C         -3.28197       -6.17139        0.28950
C         -2.95919       -4.92953       -0.53112
C         -4.15793       -5.81291        1.49348
H         -3.81567       -6.90277       -0.35657
H         -2.32993       -6.62744        0.63696
H         -3.62823       -5.08019        2.14142
H         -5.10633       -5.35311        1.13865
C         -4.49420       -7.05512        2.31468
H         -2.32870       -5.20770       -1.40330
H         -5.03072       -7.79891        1.68723
H         -3.56655       -7.51734        2.71404
H         -5.14798       -6.77418        3.16679
C         -4.76756        0.50804       -2.99674
C         -5.21843        1.41534       -3.93373
C         -5.81749        2.43846       -3.23388
C         -5.70980        2.10747       -1.89720
N         -5.06090        0.93565       -1.75378
C         -6.20600        2.92501       -0.74846
N         -7.66533        3.09936       -0.83411
C         -8.28338        3.89211        0.25397
H         -5.11928        1.34147       -5.00833
H         -4.24692       -0.41500       -3.21261
H         -6.27327        3.32185       -3.65723
H         -5.93130        2.39702        0.18656
H         -5.68577        3.90133       -0.79585
C         -7.70676        5.32413        0.30493
C         -9.79002        3.99112       -0.04478
C         -8.10753        3.19932        1.62196
H         -7.82454        5.82375       -0.68087
H         -8.23429        5.93019        1.07219
H         -6.63228        5.32557        0.57861
H        -10.24811        2.97970       -0.08808
H        -10.31115        4.57764        0.74360
H         -9.96592        4.49421       -1.01964
H         -8.52260        2.16887        1.58831
H         -7.04240        3.14432        1.92339
H         -8.63911        3.76692        2.41588
