96
speciation1368.ct
Na         0.05159       -0.70873       -1.10355
Mg         4.81222       -3.17279       -1.08631
C         -2.36681        0.93111       -1.54140
C         -1.73358       -0.55825       -3.31527
O         -1.32020        0.26340       -2.24473
C         -3.60547        0.09572       -1.18333
C         -2.09335        0.28337       -4.53222
H         -1.93829        1.28865       -0.58253
H         -2.66786        1.84547       -2.09557
H         -0.86358       -1.18814       -3.59607
H         -2.53326       -1.27240       -3.03867
H         -1.22900        0.92335       -4.81233
H         -2.34304       -0.38332       -5.38345
H         -2.96965        0.92802       -4.31414
H         -3.31289       -0.81585       -0.62182
H         -4.28534        0.70344       -0.54860
H         -4.18107       -0.18063       -2.09125
H          5.74103       -3.89997        1.37546
C          4.14748       -5.33198        0.98462
C          4.74327       -3.93257        0.89376
C          5.10940       -6.36937        0.42877
H          3.95356       -5.56766        2.05364
H          3.18600       -5.36352        0.42642
H          5.28859       -6.15451       -0.63531
H          6.07013       -6.30951        0.98375
C          4.54177       -7.77351        0.57705
H          4.11153       -3.25960        1.49353
H          4.36545       -8.00245        1.65012
H          3.58476       -7.86589        0.02088
H          5.26943       -8.50604        0.17042
C         -0.46812       -3.59569        0.20366
C          0.23544       -4.36833        1.11648
C          1.35233       -3.64200        1.44767
C          1.30640       -2.47601        0.70522
N          0.18442       -2.44524       -0.01845
C          2.35288       -1.40229        0.64989
N          1.96122       -0.23525       -0.17942
C          1.64157        0.99378        0.60111
H         -0.03412       -5.34439        1.49560
H         -1.39782       -3.87902       -0.26871
H          2.11843       -3.95292        2.15002
H          3.21633       -1.86133        0.15363
H          2.64369       -1.12376        1.68123
C          2.85339        1.58041        1.38065
C          1.19836        2.04952       -0.40150
C          0.48325        0.73021        1.58508
H          3.66613        1.89781        0.69637
H          2.54660        2.49746        1.92723
H          3.26552        0.88448        2.13776
H          0.37999        1.68216       -1.04387
H          0.89280        2.99359        0.09273
H          2.04809        2.27354       -1.03877
H         -0.39246        0.31214        1.05032
H          0.78166        0.01799        2.38182
H          0.17759        1.67564        2.08025
Mg         3.15749       -0.04402       -1.86210
C          2.50613        0.84629       -4.48145
C          3.29290        2.72651       -3.24440
O          2.73466        1.40593       -3.19237
C          3.71468        0.90041       -5.43139
C          2.29673        3.77366       -3.77906
H          2.24621       -0.21765       -4.31971
H          1.60673        1.28878       -4.96132
H          3.59758        3.05498       -2.23238
H          4.24079        2.76052       -3.81394
H          1.41922        3.86921       -3.10536
H          2.79618        4.76503       -3.84734
H          1.93731        3.52400       -4.79900
H          4.61729        0.53137       -4.91875
H          3.52345        0.28383       -6.33214
H          3.91614        1.93398       -5.78055
C          6.01146       -5.17084       -3.15358
C          6.24488       -5.00794       -4.50407
C          5.87587       -3.71742       -4.82068
C          5.43940       -3.14085       -3.63904
N          5.51443       -4.02531       -2.63349
C          4.95233       -1.73784       -3.44427
N          4.75096       -1.38578       -2.00861
C          5.89743       -0.69408       -1.36525
H          6.63752       -5.75557       -5.17880
H          6.18979       -6.07887       -2.60350
H          5.92001       -3.25229       -5.79762
H          3.99521       -1.66227       -3.99080
H          5.68991       -1.07794       -3.93179
C          6.15360        0.68925       -2.00052
C          5.52104       -0.45947        0.09804
C          7.17899       -1.54745       -1.37851
H          5.21619        1.27419       -2.01152
H          6.90708        1.25503       -1.41110
H          6.54942        0.62632       -3.03158
H          5.38987       -1.41116        0.63894
H          6.28880        0.13222        0.63786
H          4.57522        0.08444        0.11864
H          6.99611       -2.52937       -0.89040
H          7.54045       -1.72381       -2.41024
H          7.98891       -1.03496       -0.81348
