83
speciation538.ct
Na         1.02872        0.08170        0.05001
Mg         1.01756       -3.00454        0.09919
C         -1.85945       -0.57584       -1.07629
C         -1.85711        1.36293        0.24770
O         -1.29128        0.08170        0.05001
C         -1.70244        0.17119       -2.41563
C         -1.22408        2.02279        1.46062
H         -1.35233       -1.55680       -1.15807
H         -2.92559       -0.83133       -0.89543
H         -1.67578        2.03728       -0.61580
H         -2.94957        1.26741        0.44372
H         -0.13909        2.18018        1.28260
H         -1.70290        3.01029        1.63533
H         -1.36266        1.38893        2.36102
H         -0.67140        0.54740       -2.56055
H         -1.95217       -0.51488       -3.25232
H         -2.38748        1.03925       -2.47436
C          6.44937       -0.76750       -2.76669
C          6.97378        0.48580       -3.02185
C          6.18994        1.39976       -2.32754
C          5.23235        0.66527       -1.65254
N          5.38251       -0.62405       -1.96793
C          4.05789        1.16053       -0.78239
N          3.39872        0.08170        0.05001
C          3.83667        0.03194        1.46267
H          7.78982        0.70281       -3.69683
H          6.75846       -1.70089       -3.22262
H          6.28928        2.47480       -2.34717
H          3.30290        1.59279       -1.47910
H          4.41595        2.00806       -0.18323
C          3.46967        1.34004        2.21090
C          3.08086       -1.11774        2.14845
C          5.35681       -0.23165        1.56662
H          2.38520        1.54758        2.11902
H          3.72024        1.25300        3.29432
H          4.02174        2.22978        1.84976
H          3.30262       -2.08564        1.65359
H          3.36571       -1.18787        3.21999
H          1.98433       -0.93928        2.09594
H          5.61412       -1.18857        1.06011
H          5.93938        0.58425        1.10161
H          5.66444       -0.30131        2.63298
Na         3.82470       -1.39382       -1.28541
C          0.18777       -4.98317        1.86402
C         -1.40675       -3.25451        1.44959
O         -0.04008       -3.59908        1.61297
C         -0.52922       -5.97052        0.93089
C         -2.19257       -3.33793        2.75860
H          1.27915       -5.15140        1.74979
H         -0.04414       -5.22289        2.92384
H         -1.43935       -2.19169        1.14643
H         -1.89449       -3.81870        0.63235
H         -1.74796       -2.65797        3.51625
H         -3.24355       -3.02778        2.57612
H         -2.20466       -4.37288        3.15661
H         -0.31107       -5.74399       -0.12366
H         -0.18183       -7.00266        1.14064
H         -1.62825       -5.95630        1.07934
C          3.58051        0.05844       -4.33589
C          2.48139        0.30011       -5.13712
C          1.39508       -0.24041       -4.47987
C          1.89085       -0.80353       -3.32366
N          3.19589       -0.60311       -3.21649
C          1.17756       -1.57201       -2.27894
N          2.10245       -2.39469       -1.45361
C          2.53114       -3.66856       -2.14636
H          2.48553        0.80543       -6.09096
H          4.59482        0.34840       -4.56032
H          0.36846       -0.23369       -4.82211
H          0.34734       -2.14915       -2.70693
H          0.70219       -0.83865       -1.66058
C          3.39582       -3.44745       -3.41789
C          3.39133       -4.47008       -1.14840
C          1.33665       -4.55566       -2.56283
H          4.30944       -2.86666       -3.19564
H          3.72277       -4.41799       -3.84527
H          2.81741       -2.95941       -4.23333
H          2.80514       -4.73211       -0.25405
H          3.75448       -5.41067       -1.62491
H          4.27928       -3.87452       -0.84775
H          0.69528       -4.76404       -1.70045
H          0.71588       -4.10266       -3.36567
H          1.69332       -5.52049       -2.98876
