81
speciation630.ct
Na         1.56512        1.46253        0.22304
Mg        -0.76069        7.30747        1.39950
C          1.82587        8.53879        2.37582
C          0.70493       10.00947        0.94947
O          0.76999        8.66612        1.40878
C          1.53115        9.25023        3.70237
C         -0.21460       10.12135       -0.24223
H          1.98877        7.46850        2.58272
H          2.80381        8.89852        1.96010
H          0.32840       10.69517        1.74317
H          1.70720       10.35712        0.59471
H         -1.23384        9.83637        0.06376
H         -0.22352       11.17989       -0.59174
H          0.14877        9.47241       -1.06188
H          0.55734        8.91252        4.09799
H          2.33001        9.01225        4.43803
H          1.52232       10.35447        3.58443
H         -3.06695        8.48018        0.15242
C         -4.28335        6.75902        0.58034
C         -2.87295        7.40783        0.36389
C         -5.23460        7.37436        1.63721
H         -4.84236        6.88511       -0.37697
H         -4.19225        5.66542        0.73657
H         -5.40997        8.44766        1.40948
H         -6.22056        6.85715        1.55180
C         -4.79317        7.23094        3.08728
H         -2.51431        6.96826       -0.59326
H         -4.69740        6.16007        3.36329
H         -3.83747        7.76241        3.25822
H         -5.57357        7.68111        3.74348
C          2.73403       -1.77176        0.02369
C          2.16707       -2.99859       -0.29890
C          0.84629       -2.75847       -0.57665
C          0.67491       -1.39468       -0.42047
N          1.82366       -0.76989       -0.05830
C         -0.60404       -0.69175       -0.63593
N         -0.43340        0.77522       -0.46739
C         -0.46641        1.56750       -1.71781
H          2.65011       -3.97486       -0.33201
H          3.77167       -1.63465        0.29446
H          0.09228       -3.48812       -0.87378
H         -1.34285       -1.06403        0.09767
H         -0.96110       -0.98322       -1.63658
C         -1.69246        1.27806       -2.60689
C         -0.58377        3.03433       -1.29395
C          0.85406        1.36060       -2.50005
H         -2.63484        1.42562       -2.04174
H         -1.70191        1.98597       -3.47193
H         -1.70429        0.27423       -3.08285
H          0.25603        3.30625       -0.63724
H         -0.57374        3.71502       -2.16782
H         -1.51726        3.19483       -0.71201
H          1.16503        0.29579       -2.52062
H          0.77225        1.71517       -3.54673
H          1.67874        1.92537       -2.02145
Mg        -1.98958        1.32248        0.56633
C         -1.72689        4.62411        2.25655
C         -1.43064        3.30667        2.55133
C         -0.09157        3.14708        2.34392
C          0.37663        4.37490        1.90742
N         -0.63114        5.29669        1.85149
C          1.81577        4.61906        1.58433
N          2.33913        3.68686        0.55194
C          3.75226        3.96051        0.16523
H         -2.10532        2.54001        2.89292
H         -2.70218        5.06070        2.33765
H          0.50443        2.25469        2.47695
H          2.38579        4.49304        2.52604
H          1.88389        5.66912        1.24071
C          4.70084        3.53873        1.30275
C          4.05501        3.14508       -1.09728
C          4.02001        5.45491       -0.18252
H          4.49078        2.49652        1.61906
H          5.76160        3.61666        0.98155
H          4.58116        4.20540        2.18371
H          3.41897        3.50135       -1.93761
H          5.11685        3.26960       -1.40283
H          3.85825        2.06716       -0.92688
H          3.32914        5.80619       -0.97968
H          3.91727        6.12390        0.69784
H          5.06315        5.59231       -0.54259
