83
speciation455.ct
Na         1.00149       -0.08729        0.10267
Mg        -2.20592       -1.21782       -1.06100
C          0.85801        0.36431        3.17486
C         -1.24809       -0.27513        2.24734
O          0.03819        0.28423        2.01101
C          1.07063       -0.96137        3.92111
C         -2.16428        0.61031        3.10323
H          1.84904        0.72972        2.84874
H          0.48660        1.14886        3.86959
H         -1.74699       -0.39974        1.26593
H         -1.18020       -1.28682        2.68747
H         -2.39018        1.56409        2.58333
H         -3.11929        0.07150        3.28555
H         -1.72481        0.82764        4.09764
H          1.45535       -1.73481        3.22611
H          1.80405       -0.81404        4.74130
H          0.13389       -1.31520        4.40063
C          0.37986        2.08811       -4.08929
C         -0.58128        2.36632       -3.14237
C         -0.84588        1.18278       -2.48793
C         -0.03457        0.22996       -3.06680
N          0.71006        0.78507       -4.04534
C          0.00777       -1.23017       -2.73482
N         -0.24943       -1.48901       -1.30326
C         -0.15623       -2.93419       -0.92476
H         -1.04002        3.32702       -2.95520
H          0.81005        2.79850       -4.78316
H         -1.54906        1.03321       -1.68752
H          0.99904       -1.60599       -3.05233
H         -0.77529       -1.71333       -3.35257
C          1.24891       -3.52399       -1.15034
C         -0.48294       -3.05677        0.56915
C         -1.17826       -3.79813       -1.70019
H          1.97992       -2.96730       -0.55947
H          1.28858       -4.58158       -0.80988
H          1.55080       -3.52156       -2.21592
H         -1.51243       -2.69508        0.76870
H         -0.42535       -4.11477        0.90705
H          0.24212       -2.46750        1.16794
H         -2.21125       -3.42156       -1.54637
H         -0.95910       -3.82467       -2.78657
H         -1.13889       -4.85212       -1.34586
Na         2.12614       -0.15656       -5.33861
C         -4.42794        0.35315       -1.28823
C         -4.63680       -1.27485        0.45187
O         -4.11326       -0.95345       -0.82482
C         -4.10287        1.49948       -0.32181
C         -6.16290       -1.40690        0.42504
H         -3.82052        0.51183       -2.20350
H         -5.48184        0.40560       -1.63363
H         -4.22789       -2.26393        0.74542
H         -4.31159       -0.56057        1.23288
H         -6.46637       -2.18246       -0.30970
H         -6.53160       -1.69872        1.43038
H         -6.64447       -0.44420        0.15498
H         -3.05139        1.43514        0.02296
H         -4.24991        2.46838       -0.84419
H         -4.78305        1.49134        0.55394
C          0.81994        4.60128       -1.24761
C          0.15383        3.96934       -0.22268
C          1.01152        3.01536        0.29536
C          2.15071        3.05541       -0.38880
N          2.09689        4.04020       -1.40081
C          3.36967        2.25612       -0.07726
N          3.15081        0.79334       -0.19085
C          4.35982        0.00270        0.21245
H         -0.84631        4.19459        0.11653
H          0.42641        5.40831       -1.85174
H          0.81161        2.38340        1.14120
H          3.64386        2.53427        0.95623
H          4.17298        2.57689       -0.76859
C          4.83944        0.33246        1.64916
C          3.99082       -1.47409        0.16986
C          5.54979        0.22053       -0.76247
H          4.00872        0.24530        2.37395
H          5.64748       -0.36436        1.96324
H          5.28006        1.34926        1.71613
H          3.75625       -1.76361       -0.87552
H          4.83339       -2.11150        0.51869
H          3.11972       -1.65290        0.83455
H          5.25943       -0.02463       -1.80622
H          5.92983        1.26225       -0.73863
H          6.40834       -0.43097       -0.48218
