68
speciation80.ct
Na         0.56993       -1.02691       -0.68244
Mg         5.58774        1.02973        0.73860
C         -0.67290       -3.71902       -2.35117
C         -0.54784       -4.39678       -0.13539
O         -0.18609       -3.34229       -1.07941
C         -0.09781       -2.77735       -3.36945
C         -2.04660       -4.53873        0.15600
H         -0.32309       -4.74452       -2.63348
H         -1.78606       -3.68471       -2.39709
H         -0.13735       -5.40353       -0.42603
H         -0.06704       -4.20602        0.84249
H         -2.52133       -5.29342       -0.50733
H         -2.19826       -4.87503        1.20839
H         -2.55169       -3.57543        0.00732
H          1.00683       -2.80418       -3.28439
H         -0.39715       -3.09491       -4.38950
H         -0.47456       -1.75653       -3.15822
C         -2.23955       -0.68915        0.68294
C         -3.00983        0.44786        0.79714
C         -2.26673        1.48225        0.27883
C         -1.08928        0.93849       -0.14676
N         -1.08639       -0.38311        0.07021
C          0.01232        1.71461       -0.81822
N          1.34297        1.35623       -0.32041
C          2.26896        2.56410       -0.23504
H         -4.00685        0.51900        1.19395
H         -2.52807       -1.67916        0.99152
H         -2.54536        2.51907        0.17512
H         -0.22542        2.78023       -0.67463
H          0.02071        1.51081       -1.90731
C          1.78404        3.57698        0.84281
C          3.67017        2.12621        0.21424
C          2.43533        3.30064       -1.57791
H          1.63015        3.09053        1.83001
H          2.55044        4.37579        0.98369
H          0.86858        4.11048        0.55018
H          4.12645        1.55794       -0.60906
H          4.34480        2.99241        0.39494
H          3.66541        1.52957        1.15271
H          2.88106        2.63270       -2.34180
H          1.46945        3.69215       -1.93353
H          3.11906        4.16703       -1.43084
Na         1.90450        0.29328        1.24837
C          6.70361       -0.83810       -0.90753
C          6.62019       -1.85065       -1.82770
C          5.28915       -2.00495       -2.12780
C          4.61119       -1.09563       -1.35358
N          5.48859       -0.36523       -0.62504
C          3.11940       -1.04920       -1.27973
N          2.55976       -1.28416        0.07762
C          2.99028       -2.38867        0.94265
H          7.44191       -2.43519       -2.20377
H          7.58862       -0.46365       -0.42022
H          4.85230       -2.72944       -2.80319
H          2.68801       -1.80046       -1.97261
H          2.76206       -0.07508       -1.67859
C          4.48503       -2.37385        1.26710
C          2.21372       -2.19795        2.25901
C          2.71133       -3.71039        0.25920
H          4.80380       -1.36827        1.60517
H          4.72005       -3.13129        2.03516
H          5.07836       -2.70465        0.39590
H          1.11622       -2.15384        2.08766
H          2.44709       -2.99552        2.98736
H          2.51348       -1.23243        2.72950
H          1.71667       -3.67474       -0.06609
H          3.29648       -3.83129       -0.67690
H          2.85927       -4.57359        0.93437
