95
speciation1248.ct
Na         7.95071        1.26620        0.20477
Mg         2.41692        4.79585       -0.85939
C          8.74621       -1.18780        2.15190
C         10.52755       -0.23483        0.96119
O          9.12638       -0.43722        0.99377
C          8.98870       -0.45091        3.47405
C         10.93341        0.47521       -0.32029
H          7.66800       -1.43344        2.06379
H          9.24962       -2.18564        2.18380
H         10.84973        0.40258        1.80928
H         11.05477       -1.21176        0.97823
H         10.44702        1.47202       -0.37412
H         12.03593        0.61248       -0.31211
H         10.65489       -0.12655       -1.21121
H          8.68961        0.60977        3.36959
H          8.40250       -0.92279        4.29078
H         10.06109       -0.50873        3.76420
H          1.90830        6.35400        1.38210
C          3.78284        5.49699        2.07468
C          2.46147        5.39958        1.28547
C          4.73513        6.57519        1.54761
H          3.55989        5.73171        3.14199
H          4.30331        4.51476        2.05441
H          5.65948        6.56746        2.16767
H          5.01503        6.35757        0.50895
C          4.12797        7.97122        1.59200
H          1.83150        4.66609        1.82877
H          3.25710        8.03356        0.91231
H          3.81188        8.21904        2.62677
H          4.87736        8.71000        1.24337
C          7.42277        4.19640       -0.85952
C          6.58832        5.19926       -1.30969
C          5.32844        4.65769       -1.36807
C          5.43630        3.35939       -0.94209
N          6.72244        3.06730       -0.59839
C          4.29244        2.43179       -0.76480
N          3.01259        2.80440       -1.45949
C          2.01995        1.73122       -1.11231
H          6.86859        6.20994       -1.54025
H          8.48231        4.27886       -0.69435
H          4.42789        5.17540       -1.64160
H          4.63791        1.41704       -1.02520
H          4.13532        2.42981        0.33494
C          1.63799        1.80496        0.37868
C          0.76985        2.11213       -1.77365
C          2.38704        0.28302       -1.71796
H          1.55698        2.88231        0.62200
H          0.62835        1.38155        0.59004
H          2.36939        1.33489        1.05235
H          1.03871        1.87207       -2.77385
H         -0.11777        1.48481       -1.56724
H          0.58327        3.19209       -1.59427
H          3.36999        0.24667       -2.23613
H          2.15048       -0.58329       -1.07357
H          1.77817       -0.00118       -2.61622
Na         3.86658        0.88800       -5.92414
Mg         2.29350        3.13060       -3.45433
H          1.14052        6.32852       -2.98317
C          1.80281        8.09756       -1.98198
C          1.30002        6.62293       -1.92788
C          3.16660        8.20401       -2.68690
H          1.06565        8.75094       -2.50887
H          1.89069        8.46906       -0.94125
H          3.82330        7.49068       -2.16109
H          3.09524        7.90564       -3.75893
C          3.85326        9.58046       -2.58251
H          0.27937        6.65578       -1.48484
H          3.62415       10.28246       -3.41751
H          3.66435       10.05931       -1.59598
H          4.94418        9.40705       -2.65807
C         -0.82863        3.94430       -3.49303
C         -1.87891        3.08163       -3.75324
C         -1.38203        2.05286       -4.55788
C         -0.04488        2.35282       -4.76915
N          0.27034        3.40639       -4.03457
C          1.07466        1.62208       -5.46695
N          2.39396        2.30951       -5.24409
C          2.83083        3.57629       -5.90316
H         -2.86127        3.14541       -3.30276
H         -0.83500        4.75352       -2.77948
H         -1.91414        1.15498       -4.85338
H          0.87345        1.45786       -6.54537
H          1.12718        0.61582       -4.99594
C          2.02709        4.80444       -5.44811
C          4.29048        3.79853       -5.44580
C          2.79192        3.52977       -7.43141
H          2.08465        4.90225       -4.34629
H          2.43843        5.75149       -5.84388
H          0.98327        4.73857       -5.82099
H          4.93652        2.95219       -5.76027
H          4.71740        4.73201       -5.86631
H          4.35529        3.85581       -4.33638
H          3.54102        2.81921       -7.83275
H          1.77437        3.27319       -7.78934
H          3.04810        4.54617       -7.81655
