95
speciation1642.ct
Na         6.17797        1.58594       -4.56952
Mg         2.26367        4.93676       -1.02312
C          3.63754        7.47868       -1.44209
C          4.70477        5.78121       -2.56812
O          3.96147        6.10511       -1.38819
C          3.03932        7.86520       -0.13820
C          6.10541        6.42332       -2.66609
H          4.52898        8.13187       -1.52531
H          2.92779        7.68784       -2.27192
H          4.95508        4.72847       -2.52235
H          4.11444        5.97263       -3.49654
H          6.70408        6.18377       -1.76208
H          6.63777        6.01539       -3.55302
H          6.08011        7.52070       -2.81195
H          3.74692        7.68887        0.69783
H          2.72372        8.92883       -0.16397
H          2.19189        7.20043       -0.03123
H          1.57300        4.72362       -3.73484
C          0.40994        6.51264       -3.61922
C          0.94308        5.19886       -2.95641
C         -0.46767        6.33662       -4.87935
H         -0.21899        7.11469       -2.94842
H          1.28121        7.14045       -3.89921
H         -0.76065        7.35779       -5.21889
H          0.09545        5.85577       -5.70580
C         -1.76217        5.56072       -4.61909
H          0.09016        4.52501       -2.74014
H         -1.54323        4.49427       -4.41065
H         -2.32073        5.99963       -3.76424
H         -2.41448        5.60960       -5.51866
C          4.56224       -0.80392       -3.58154
C          3.46558       -1.25365       -2.88585
C          2.80846       -0.13404       -2.42289
C          3.55106        0.96036       -2.82162
N          4.61658        0.54009       -3.54812
C          3.25077        2.42395       -2.53878
N          2.88189        2.81178       -1.13645
C          3.85801        2.39114       -0.07543
H          3.17980       -2.28558       -2.73304
H          5.28783       -1.42823       -4.08994
H          1.91380       -0.13320       -1.83045
H          4.11128        2.97470       -2.91579
H          2.39183        2.68538       -3.18091
C          5.22984        3.07484       -0.24145
C          3.23410        2.84823        1.19111
C          4.08549        0.86607        0.09868
H          5.12490        4.17496       -0.26091
H          5.89441        2.82155        0.61417
H          5.73082        2.73163       -1.16956
H          2.25014        2.36590        1.31734
H          3.87139        2.69145        2.08960
H          3.09192        3.88830        0.95378
H          3.12366        0.32034        0.20313
H          4.70959        0.42833       -0.70107
H          4.66724        0.66623        1.02663
Na         1.01361        1.48981        2.76024
Mg         1.26766        1.67491       -0.88773
H         -0.07882       -0.55638       -0.57450
C         -1.38861        0.68513       -1.76453
C         -0.38713        0.50947       -0.63275
C         -0.78021        0.22319       -3.09294
H         -2.28784        0.07011       -1.54061
H         -1.68578        1.75362       -1.82762
H          0.12391        0.82611       -3.32727
H         -0.48500       -0.84689       -3.01217
C         -1.78148        0.36462       -4.23365
H         -0.84122        0.79367        0.33971
H         -2.69472       -0.23112       -4.01963
H         -2.06149        1.43077       -4.36753
H         -1.32762       -0.00892       -5.17577
C          0.42235        3.23797        4.99139
C          0.33706        4.44989        5.63788
C          0.77602        5.39025        4.75269
C          1.11375        4.72356        3.57156
N          0.87375        3.39906        3.73798
C          1.75497        5.44905        2.37500
N          1.08242        5.40622        1.01350
C         -0.14705        6.30440        0.98179
H          0.02019        4.61257        6.66515
H          0.15964        2.28236        5.43212
H          0.86942        6.44920        4.93322
H          2.79442        5.13354        2.37796
H          1.95070        6.48742        2.66025
C          0.08748        7.79876        1.41643
C         -0.65485        6.37161       -0.44291
C         -1.30287        5.73478        1.83069
H          0.63665        8.39510        0.66878
H         -0.88258        8.33067        1.49166
H          0.55940        7.94661        2.40162
H         -0.96108        5.37748       -0.82659
H         -1.51566        7.07265       -0.54724
H          0.19261        6.76992       -1.00880
H         -1.55536        4.70304        1.50948
H         -1.08597        5.74741        2.90893
H         -2.21400        6.36322        1.70459
