66
speciation249.ct
Na         1.91747       -0.14353        0.04193
Mg         2.82427        1.57804       -1.55273
H          5.05406        1.07037       -2.95020
C          3.85246        2.38003       -4.18015
C          3.98788        1.19984       -3.23460
C          4.36265        3.64091       -3.48012
H          4.44676        2.18972       -5.10161
H          2.78303        2.49948       -4.45805
H          3.78278        3.80717       -2.54575
H          5.43509        3.50707       -3.21501
C          4.22725        4.86789       -4.37133
H          3.64295        0.26501       -3.72798
H          4.80873        4.73116       -5.30775
H          3.15961        5.04290       -4.62145
H          4.61957        5.75608       -3.83283
C         -2.06192       -0.76175        0.28868
C         -2.84731        0.29781        0.65968
C         -2.13365        1.44238        0.36246
C         -0.92942        1.03181       -0.18382
N         -0.90190       -0.31827       -0.21799
C          0.14275        1.95155       -0.74569
N          1.47980        1.80894       -0.13244
C          1.82499        2.61649        1.06129
H         -3.84108        0.23041        1.08545
H         -2.31917       -1.81245        0.36367
H         -2.46632        2.45746        0.50928
H         -0.20158        2.99953       -0.72731
H          0.24656        1.67696       -1.81491
C          0.87469        2.30467        2.23268
C          3.25930        2.25357        1.49565
C          1.79492        4.12434        0.73363
H          0.91068        1.22166        2.48265
H          1.16631        2.88143        3.13748
H         -0.16914        2.57916        1.98510
H          3.98412        2.46042        0.67941
H          3.56225        2.85248        2.38434
H          3.33530        1.17943        1.76783
H          2.47426        4.34607       -0.11735
H          0.77739        4.47630        0.47657
H          2.12393        4.72048        1.61179
Mg         0.30794       -1.60870       -0.82188
C         -0.60594       -3.88398       -2.69792
C          0.18386       -4.80896       -3.35637
C          1.49965       -4.48691       -3.07423
C          1.44770       -3.37639       -2.26860
N          0.18331       -3.03861       -2.01702
C          2.54858       -2.54322       -1.68982
N          2.13356       -2.10878       -0.35432
C          2.61835       -2.85790        0.81771
H         -0.16455       -5.62615       -3.97236
H         -1.68862       -3.84399       -2.69619
H          2.39017       -4.99776       -3.41406
H          3.55177       -2.99010       -1.77178
H          2.55208       -1.61469       -2.29935
C          4.15037       -2.70413        0.93051
C          1.98981       -2.24974        2.08912
C          2.21553       -4.33712        0.72614
H          4.42170       -1.62475        0.97500
H          4.53259       -3.20197        1.84607
H          4.67613       -3.15321        0.06804
H          0.88044       -2.30975        2.05823
H          2.34322       -2.78267        2.99898
H          2.27032       -1.17580        2.19840
H          1.11010       -4.42217        0.65578
H          2.66892       -4.81275       -0.16504
H          2.55977       -4.88921        1.62745
