53
speciation913.ct
Na         3.50985       -0.47620        1.89892
C          3.37667        2.16989        3.65160
C          2.62001        3.31415        3.49237
C          1.84149        3.12397        2.36430
C          2.15685        1.86863        1.88598
N          3.09331        1.30274        2.66705
C          1.56480        1.21060        0.64973
N          2.18601       -0.10387        0.33861
C          1.33435       -1.31182        0.31574
H          2.63553        4.19124        4.12454
H          4.09618        1.98208        4.43609
H          1.13394        3.82509        1.93996
H          1.80469        1.91230       -0.16838
H          0.46261        1.15727        0.73529
C          0.31368       -1.28625       -0.83248
C          2.27479       -2.50565        0.07568
C          0.60044       -1.50119        1.65573
H          0.84657       -1.22974       -1.79915
H         -0.28207       -2.22403       -0.84884
H         -0.39995       -0.44345       -0.73219
H          3.01813       -2.59362        0.89534
H          1.70717       -3.45806        0.00988
H          2.83457       -2.36604       -0.87687
H          1.32642       -1.54197        2.49368
H         -0.11424       -0.67582        1.84911
H          0.01814       -2.44744        1.64295
Na         1.91222       -1.63925       -3.88246
Mg         3.19197        0.01883       -1.32133
C          6.21776        0.09537       -0.92736
C          7.26345        0.12546       -1.83242
C          6.69484        0.13343       -3.09559
C          5.32977        0.11263       -2.89478
N          5.04864        0.08608       -1.59228
C          4.25121        0.12252       -3.93346
N          2.91405        0.15427       -3.28925
C          2.08013        1.34421       -3.61818
H          8.32269        0.13406       -1.59789
H          6.30873        0.07304        0.15112
H          7.21750        0.15625       -4.04295
H          4.33833       -0.79610       -4.55019
H          4.43809        0.99285       -4.58909
C          1.80860        1.45751       -5.13230
C          0.70591        1.19063       -2.95019
C          2.74702        2.62582       -3.07146
H          1.32147        0.52748       -5.49738
H          1.12368        2.31056       -5.33059
H          2.72457        1.62937       -5.72303
H          0.81097        1.10709       -1.86663
H          0.05768        2.07153       -3.14348
H          0.17688        0.29042       -3.32930
H          2.96501        2.51627       -1.98824
H          3.70564        2.84222       -3.57994
H          2.08213        3.50493       -3.20729
