66
speciation215.ct
Na         1.16273        0.37406       -0.00575
Mg         3.96099       -1.52878       -0.83171
H          5.85493       -2.25461        1.22764
C          6.12271       -4.07587        0.28448
C          5.18819       -2.89811        0.64137
C          7.16060       -3.72535       -0.79292
H          6.64328       -4.42605        1.20298
H          5.54427       -4.95263       -0.06162
H          7.73776       -4.64492       -1.02807
H          6.64058       -3.40965       -1.71867
C          8.15212       -2.64603       -0.36150
H          4.44739       -3.29518        1.36334
H          7.64142       -1.67788       -0.18173
H          8.68282       -2.96384        0.56082
H          8.90413       -2.49528       -1.16573
C          6.03440       -0.85236       -2.97961
C          6.35330        0.36712       -3.54329
C          5.58233        1.31801       -2.89994
C          4.82883        0.63230       -1.96719
N          5.10437       -0.68125       -2.02183
C          3.80608        1.24199       -1.02798
N          3.30165        0.25242       -0.03626
C          3.68213        0.55338        1.37432
H          7.04823        0.54237       -4.35159
H          6.43082       -1.80536       -3.29182
H          5.56494        2.38019       -3.09950
H          2.95868        1.63801       -1.62621
H          4.28706        2.11352       -0.54816
C          3.14817        1.92424        1.87704
C          3.01759       -0.51956        2.25294
C          5.21368        0.55770        1.54897
H          2.04790        1.99869        1.76503
H          3.39800        2.05613        2.95489
H          3.60836        2.78799        1.35716
H          3.29507       -1.53258        1.93144
H          3.28948       -0.39372        3.32303
H          1.91030       -0.44427        2.17327
H          5.66718       -0.27808        1.02384
H          5.67903        1.45248        1.09075
H          5.49672        0.54165        2.62386
Mg         1.20139       -2.84557       -0.49375
C          3.47520       -0.26283       -5.63969
C          2.38258       -0.81934       -6.26814
C          1.53766       -1.30370       -5.28177
C          2.10483       -1.06423       -4.09176
N          3.32560       -0.39030       -4.25075
C          1.53924       -1.47070       -2.75626
N          2.39275       -2.40204       -1.97336
C          2.64794       -3.73430       -2.60698
H          2.23713       -0.87574       -7.33874
H          4.32504        0.19128       -6.12550
H          0.59949       -1.81500       -5.44462
H          0.53550       -1.92185       -2.89885
H          1.37585       -0.55433       -2.15764
C          3.57133       -3.69753       -3.84567
C          3.36483       -4.55812       -1.56184
C          1.33467       -4.47360       -2.96290
H          4.51403       -3.16283       -3.61948
H          3.83287       -4.73101       -4.16241
H          3.10319       -3.25081       -4.73356
H          2.79167       -4.62215       -0.61147
H          3.61105       -5.58233       -1.91711
H          4.29305       -4.00920       -1.41191
H          0.67113       -4.54916       -2.07491
H          0.79011       -3.96143       -3.78151
H          1.55672       -5.50374       -3.31855
