110
speciation2250.ct
Na         3.68519       -2.80924       -3.21669
Mg         4.55920        8.15649       -2.73452
C          1.22003       -4.21650       -4.45454
C          3.17668       -5.34883       -4.82991
O          2.62419       -4.05851       -4.62534
C          0.49416       -2.88450       -4.36937
C          4.64469       -5.27760       -5.20873
H          0.77299       -4.73245       -5.34126
H          0.99426       -4.80509       -3.53536
H          3.05488       -5.98752       -3.92520
H          2.68080       -5.84073       -5.69415
H          5.23651       -4.86331       -4.37199
H          5.00526       -6.30657       -5.43416
H          4.77517       -4.65600       -6.11961
H          0.69499       -2.27769       -5.27710
H         -0.60076       -3.07538       -4.30876
H          0.80165       -2.34011       -3.45702
H          3.19478        8.90591       -5.08142
C          3.89488        7.05835       -5.75566
C          4.10885        8.30737       -4.90970
C          2.67981        6.26681       -5.27002
H          3.71504        7.37326       -6.81055
H          4.80626        6.42807       -5.72637
H          2.85431        5.93452       -4.22494
H          1.76856        6.90587       -5.29195
C          2.43745        5.05622       -6.16658
H          4.94815        8.88743       -5.34945
H          2.21307        5.37289       -7.20545
H          3.33973        4.40819       -6.18382
H          1.57121        4.47676       -5.78127
C          3.01233        2.35737       -3.92631
C          2.41144        1.26999       -4.49997
C          2.74123        0.18876       -3.71513
C          3.52688        0.66879       -2.68216
N          3.70241        2.01618       -2.83179
C          3.98361       -0.15942       -1.48896
N          4.76297       -1.39434       -1.80079
C          5.14189       -2.20057       -0.61351
H          1.78194        1.28311       -5.38018
H          2.93879        3.37472       -4.25143
H          2.40847       -0.82136       -3.86698
H          3.04934       -0.44336       -0.96613
H          4.57021        0.51604       -0.84476
C          3.90221       -2.82830        0.06128
C          6.04733       -3.34213       -1.11253
C          5.94202       -1.37863        0.42395
H          3.32993       -3.44252       -0.66685
H          4.21272       -3.48573        0.90272
H          3.22817       -2.05995        0.48772
H          6.94797       -2.93076       -1.61825
H          6.38642       -3.98056       -0.26715
H          5.50695       -3.98539       -1.83985
H          6.85667       -0.95059       -0.03838
H          5.33915       -0.55813        0.86114
H          6.24787       -2.02468        1.27505
Na         4.50481        3.91689       -2.11663
Mg         6.52611       -0.86292       -2.55515
C          5.52712       10.34903       -0.77914
C          3.79419       11.08244       -2.13335
O          4.77038       10.06023       -1.95949
C          4.72783       10.17529        0.51717
C          3.08001       10.94887       -3.44783
H          6.41587        9.71586       -0.73223
H          5.98473       11.36581       -0.81721
H          3.01755       11.04513       -1.34064
H          4.28076       12.08795       -2.15169
H          2.49071       10.01229       -3.41804
H          2.37484       11.79454       -3.58579
H          3.82169       10.96803       -4.27374
H          4.20411        9.20330        0.51724
H          5.40943       10.21931        1.39156
H          3.98335       10.98901        0.63803
H          8.75371        0.52307       -2.73828
C          8.15999        0.07049       -4.79064
C          8.33354       -0.31816       -3.32847
C          7.59373       -1.11107       -5.58780
H          7.46611        0.93588       -4.85639
H          9.14860        0.36511       -5.20558
H          8.27940       -1.98364       -5.50593
H          6.60259       -1.39849       -5.17319
C          7.43336       -0.76006       -7.06393
H          9.02281       -1.18655       -3.25564
H          6.74442        0.10251       -7.18390
H          8.41950       -0.50653       -7.50874
H          7.01280       -1.63132       -7.60964
C          3.54352        3.10298        0.37331
C          2.18611        3.25103        0.46484
C          1.88709        4.53459        0.02509
C          3.11538        5.12283       -0.28931
N          4.04385        4.19957       -0.17481
C          3.49375        6.38118       -1.00185
N          4.56448        6.14840       -2.01950
C          6.05366        5.97995       -1.77244
H          1.51474        2.45546        0.74415
H          4.14182        2.22160        0.54152
H          0.90789        4.93135       -0.15871
H          3.79822        7.16473       -0.28191
H          2.58861        6.76062       -1.52817
C          6.54672        4.82360       -0.83324
C          6.62392        5.69822       -3.16392
C          6.69988        7.23914       -1.21821
H          6.27769        3.80194       -1.13872
H          7.65896        4.78270       -0.84931
H          6.28097        5.00251        0.23403
H          6.41435        6.55874       -3.83412
H          7.71792        5.52830       -3.13302
H          6.12992        4.80433       -3.59238
H          6.60604        8.05327       -1.95751
H          6.26754        7.50837       -0.22621
H          7.79475        7.08676       -1.05938
