96
speciation995.ct
Na         0.93960        3.42035        2.82342
Mg        -2.14789       -1.28705       -3.70229
C          3.20090        5.42114        2.71837
C          3.45967        3.68831        1.13477
O          2.87301        4.08560        2.36145
C          2.75421        6.49383        1.71327
C          3.05643        2.25805        0.81346
H          2.68702        5.63198        3.67772
H          4.29020        5.51375        2.92831
H          3.12379        4.31658        0.28275
H          4.56981        3.70875        1.22147
H          1.96102        2.19333        0.67229
H          3.54645        1.93168       -0.12859
H          3.35726        1.57937        1.63737
H          1.67577        6.38343        1.48098
H          2.92420        7.50099        2.15064
H          3.34800        6.44833        0.77617
H         -2.29195       -3.60714       -4.74749
C         -2.57853       -4.46745       -2.77748
C         -1.99990       -3.38632       -3.69457
C         -4.10831       -4.50059       -2.78900
H         -2.18517       -5.44812       -3.13006
H         -2.21540       -4.30392       -1.73639
H         -4.48604       -3.53979       -2.38180
H         -4.48019       -4.62706       -3.82909
C         -4.66374       -5.65492       -1.94452
H         -0.88727       -3.45247       -3.63287
H         -4.40311       -6.63833       -2.39471
H         -4.26925       -5.61933       -0.90700
H         -5.77177       -5.58164       -1.90015
C         -0.27737        3.99767        0.06493
C         -1.18845        3.63215       -0.89189
C         -1.84713        2.52873       -0.40796
C         -1.31982        2.26811        0.84107
N         -0.35704        3.17433        1.12526
C         -1.73298        1.18348        1.79749
N         -2.38372        0.02336        1.14146
C         -2.76949       -1.06186        2.10543
H         -1.35094        4.12320       -1.83698
H          0.41016        4.82654       -0.01227
H         -2.62342        2.00855       -0.92251
H         -0.80859        0.85647        2.30914
H         -2.40480        1.66134        2.53887
C         -3.82606       -0.58919        3.13820
C         -3.31356       -2.24434        1.29184
C         -1.56983       -1.59711        2.92707
H         -4.73550       -0.20396        2.67678
H         -4.14183       -1.43045        3.79152
H         -3.41886        0.19279        3.81380
H         -2.51352       -2.67979        0.65636
H         -3.70689       -3.04299        1.95873
H         -4.11752       -1.92398        0.62118
H         -0.76075       -1.96669        2.26528
H         -1.15969       -0.83283        3.61862
H         -1.90284       -2.43993        3.57510
Mg        -3.72199        0.66087       -0.18621
C          0.20945        4.19380        5.57158
C          0.38924        1.81861        5.34670
O          0.11883        3.06140        4.71250
C          1.48773        4.29808        6.42087
C         -0.74970        1.39313        6.28229
H          0.17971        5.09135        4.91997
H         -0.69346        4.26374        6.21425
H          0.48125        1.03664        4.56492
H          1.36458        1.81384        5.87050
H         -1.67945        1.21757        5.70095
H         -0.47315        0.45446        6.80726
H         -0.94966        2.16110        7.05772
H          2.38846        4.24742        5.77498
H          1.48838        5.26444        6.96695
H          1.53388        3.50388        7.19532
C         -1.53755        1.58875       -4.13090
C         -2.05947        2.86431       -4.04400
C         -3.34476        2.72627       -3.57711
C         -3.55476        1.37172       -3.40185
N         -2.44508        0.67700       -3.73173
C         -4.79290        0.74808       -2.85466
N         -5.06026        1.29838       -1.51388
C         -6.32538        0.96296       -0.85221
H         -1.55640        3.79551       -4.28295
H         -0.52204        1.35609       -4.43797
H         -4.04822        3.52638       -3.37508
H         -4.64698       -0.34730       -2.80157
H         -5.61231        0.99568       -3.55777
C         -6.56939       -0.56904       -0.74002
C         -6.20969        1.54043        0.57302
C         -7.47036        1.64178       -1.59850
H         -6.43893       -1.10468       -1.70092
H         -5.87420       -1.02771       -0.02053
H         -7.58662       -0.78893       -0.35702
H         -5.66270        2.50854        0.58490
H         -7.18326        1.64262        1.09172
H         -5.58809        0.87096        1.17466
H         -7.24590        2.72239       -1.71696
H         -7.61023        1.18095       -2.59633
H         -8.41762        1.52504       -1.03140
