110
speciation1936.ct
Na        -0.24964        4.27591        4.13677
Li        -3.63108        1.40055       -5.66960
C          0.13354        5.66463        7.10818
C          1.59133        6.15879        5.39188
O          0.33828        5.59202        5.70463
C         -1.25300        5.18532        7.50422
C          1.72307        6.23654        3.89171
H          0.90042        5.08847        7.67579
H          0.16899        6.73607        7.41802
H          1.66539        7.20582        5.76539
H          2.41940        5.53001        5.78821
H          0.90377        6.86530        3.48174
H          2.69331        6.68363        3.60013
H          1.66959        5.20636        3.48921
H         -2.02259        5.65995        6.86046
H         -1.31956        4.08093        7.42720
H         -1.44914        5.47966        8.56057
H         -2.81211        3.62571       -6.75347
C         -4.35665        3.79268       -8.21767
C         -3.39170        2.91016       -7.37216
C         -5.08616        3.08118       -9.37062
H         -5.09343        4.28825       -7.55091
H         -3.75814        4.59833       -8.70417
H         -5.73044        3.82276       -9.89991
H         -4.35302        2.69090      -10.11134
C         -5.95902        1.94591       -8.87854
H         -2.67755        2.44245       -8.08347
H         -5.31334        1.18033       -8.40899
H         -6.69985        2.33547       -8.14991
H         -6.49850        1.47897       -9.72892
C          1.21988        1.41889        4.21942
C          1.20235        0.12850        3.72613
C          0.11881        0.05475        2.87860
C         -0.48372        1.29809        2.90443
N          0.19530        2.13931        3.72060
C         -1.72999        1.68738        2.15585
N         -2.66836        0.57038        1.93970
C         -3.46487        0.05478        3.13546
H          1.89333       -0.67409        3.95391
H          1.95640        1.80908        4.91542
H         -0.20006       -0.81847        2.31773
H         -2.21769        2.54665        2.65862
H         -1.41517        2.06268        1.16340
C         -4.34324        1.17899        3.70224
C         -4.42975       -1.08838        2.77897
C         -2.57509       -0.52619        4.26700
H         -5.00526        1.57526        2.89967
H         -4.98814        0.79265        4.52336
H         -3.73993        2.00007        4.12485
H         -3.86103       -2.00440        2.54823
H         -5.04464       -1.39373        3.65431
H         -5.15590       -0.79534        1.99442
H         -1.95964       -1.37193        3.89051
H         -1.93372        0.23775        4.73573
H         -3.21026       -0.93936        5.08318
Na        -2.37196       -0.21186       -0.01518
Li        -2.69019       -0.16841       -0.05488
C         -2.06979        6.43338        3.14168
C         -0.75973        5.81776        1.29553
O         -1.09178        5.53469        2.65201
C         -3.46584        5.95517        2.76128
C          0.51119        5.11229        0.84473
H         -1.98702        6.47133        4.24788
H         -1.89886        7.48402        2.80714
H         -1.57705        5.45360        0.63833
H         -0.58510        6.90650        1.12582
H          1.39952        5.50559        1.36737
H          0.67329        5.31817       -0.23506
H          0.42491        4.01815        0.99891
H         -3.62393        4.92924        3.15414
H         -4.23056        6.63696        3.18704
H         -3.58432        5.94425        1.65800
H         -6.27363        1.32496       -6.04525
C         -6.22774       -0.19576       -4.52575
C         -5.60429        0.49194       -5.75105
C         -6.39719        0.75297       -3.32392
H         -7.24098       -0.56611       -4.80512
H         -5.63157       -1.08012       -4.25347
H         -7.01901        1.60563       -3.62471
H         -6.90478        0.20868       -2.49826
C         -5.05124        1.26983       -2.79833
H         -5.58471       -0.25321       -6.57470
H         -4.44846        0.45115       -2.37981
H         -4.48139        1.77004       -3.60442
H         -5.22745        1.99190       -1.97952
C         -0.80769        1.53202       -4.78582
C          0.22906        1.01552       -4.02450
C         -0.27884       -0.06349       -3.34824
C         -1.60865       -0.15853       -3.70981
N         -1.94130        0.81687       -4.60929
C         -2.52283       -1.24508       -3.22594
N         -2.55583       -1.43893       -1.74115
C         -3.41883       -2.56540       -1.30707
H          1.25090        1.38487       -3.97736
H         -0.72023        2.39004       -5.43701
H          0.26330       -0.71652       -2.67536
H         -2.13872       -2.18731       -3.67747
H         -3.51288       -1.06211       -3.65781
C         -2.75860       -3.92545       -1.53455
C         -3.58963       -2.39762        0.17536
C         -4.85127       -2.53408       -1.89960
H         -1.75187       -3.93912       -1.05354
H         -3.37568       -4.71905       -1.05037
H         -2.66464       -4.15928       -2.60569
H         -4.12460       -1.43744        0.29778
H         -4.20803       -3.18817        0.62831
H         -2.59517       -2.35282        0.68198
H         -5.34113       -1.55526       -1.69504
H         -4.84806       -2.73570       -2.98066
H         -5.48267       -3.31181       -1.42042
