110
speciation2412.ct
Na         5.22866        1.86352        3.25890
Mg         2.48841        4.71782       -1.13692
C          4.14329        1.78494        6.14960
C          5.88706        0.23523        5.87167
O          4.74386        0.83485        5.28109
C          5.04859        2.96723        6.53788
C          6.54381       -0.73627        4.90013
H          3.26692        2.20213        5.61148
H          3.74170        1.28687        7.05951
H          6.67007        0.97654        6.13097
H          5.58436       -0.34094        6.77410
H          6.93463       -0.18982        4.01518
H          7.39880       -1.23653        5.40633
H          5.82198       -1.51055        4.56933
H          5.47326        3.44648        5.63113
H          4.45524        3.71883        7.09894
H          5.87167        2.65289        7.21286
H          1.72419        4.86316        1.42687
C          0.90109        6.79444        0.89473
C          1.94146        5.67373        0.70190
C          0.88197        7.36896        2.32566
H          1.11950        7.63095        0.22058
H         -0.11255        6.41104        0.64806
H          0.12452        8.18455        2.36642
H          0.58030        6.58314        3.04925
C          2.23108        7.95702        2.75281
H          2.95345        6.06606        0.90669
H          3.00712        7.16718        2.80937
H          2.55705        8.74364        2.03895
H          2.14466        8.40514        3.76416
C          6.81946        3.67249        1.00659
C          6.71296        4.36029       -0.18082
C          5.48855        4.00920       -0.70960
C          4.94496        3.09558        0.12909
N          5.72390        2.91435        1.19314
C          3.68580        2.37668       -0.02305
N          2.96190        2.64073       -1.29353
C          1.74220        1.73812       -1.31673
H          7.42785        5.05945       -0.59375
H          7.63114        3.75311        1.71799
H          5.01349        4.35051       -1.59617
H          4.02201        1.32337        0.02729
H          3.07864        2.62783        0.86333
C          0.71916        2.18829       -0.24452
C          1.03302        1.78200       -2.67624
C          2.10084        0.24323       -1.06317
H          0.54768        3.28149       -0.32896
H         -0.24771        1.65497       -0.34191
H          1.07625        1.97704        0.78412
H          1.72267        1.49691       -3.49168
H          0.19880        1.04405       -2.70485
H          0.55420        2.76349       -2.84802
H          3.06237        0.02426       -1.52252
H          2.23078        0.01501        0.01444
H          1.34508       -0.47235       -1.45329
Na         6.56116        3.35358       -2.70569
Mg         4.34705        2.41115       -2.97716
C          5.02404        3.88289       -5.20088
C          2.74626        4.08056       -4.61928
O          3.85347        3.20738       -4.73523
C          5.40440        5.20790       -4.50723
C          2.23880        4.74981       -5.90498
H          5.86613        3.19933       -5.01920
H          4.97743        4.02952       -6.29826
H          1.88578        3.56105       -4.22186
H          2.99378        4.78275       -3.87634
H          1.77515        3.99730       -6.57502
H          1.45052        5.49220       -5.63611
H          3.03349        5.30132       -6.44096
H          5.40032        5.10959       -3.42452
H          6.43662        5.49589       -4.78912
H          4.72419        6.04056       -4.77242
H          3.34903        6.47368       -2.94126
C          2.36580        8.07535       -2.16683
C          2.38487        6.57670       -2.43203
C          3.54073        8.51512       -1.27927
H          2.42633        8.62235       -3.13725
H          1.39520        8.35901       -1.72401
H          3.41547        9.59633       -1.06960
H          3.51397        7.96426       -0.31918
C          4.91664        8.31875       -1.93573
H          1.57107        6.37057       -3.16386
H          5.16469        7.24741       -2.08307
H          4.95614        8.83851       -2.91749
H          5.70212        8.74112       -1.27759
C          9.41926        4.48655       -3.69165
C         10.35973        3.74119       -4.37731
C          9.87610        2.45133       -4.46565
C          8.63357        2.48061       -3.78555
N          8.34025        3.70156       -3.40614
C          7.72737        1.32593       -3.22707
N          6.18828        1.29592       -3.35102
C          5.72880        0.10994       -4.18495
H         11.30694        4.09494       -4.76157
H          9.52678        5.53161       -3.43321
H         10.37211        1.62231       -4.91706
H          8.25947        0.42122       -3.48851
H          7.90303        1.42953       -2.13854
C          6.37865       -1.24511       -3.73180
C          4.20844       -0.22911       -4.09702
C          5.96251        0.44321       -5.66219
H          6.07409       -1.47104       -2.68220
H          6.01891       -2.08344       -4.36510
H          7.46939       -1.35559       -3.77695
H          3.53778        0.60592       -4.35247
H          3.96547       -1.04803       -4.81791
H          3.93801       -0.69872       -3.14579
H          5.24445        1.23547       -5.96612
H          6.98838        0.81483       -5.83454
H          5.75721       -0.43728       -6.30543
