83
speciation452.ct
Na         0.91356        0.05334        0.21143
Mg         7.50435        3.87272       -8.41542
C         -1.88799       -0.76730       -0.74826
C         -1.88496        1.41852        0.21272
O         -1.40512        0.08440        0.28322
C         -1.69032       -0.24924       -2.17988
C         -3.37641        1.52298        0.54484
H         -1.31965       -1.71738       -0.66469
H         -2.94902       -1.04042       -0.56749
H         -1.34274        2.00967        0.98028
H         -1.65006        1.90315       -0.75599
H         -3.56962        1.13495        1.56730
H         -3.69126        2.58698        0.50118
H         -3.99417        0.95825       -0.18300
H         -0.62549        0.01390       -2.35068
H         -1.98675       -1.04029       -2.90012
H         -2.33534        0.62973       -2.38681
C          4.05354       -1.08242        0.14043
C          5.38686       -0.73510        0.06235
C          5.43037        0.64018        0.00859
C          4.11803        1.06898        0.05465
N          3.28222        0.02161        0.13809
C          3.66584        2.48733        0.04234
N          2.79003        2.75510       -1.11588
C          2.30029        4.15938       -1.17076
H          6.23217       -1.40979        0.04617
H          3.66606       -2.09082        0.19227
H          6.31758        1.25690       -0.05447
H          3.12752        2.64957        0.99612
H          4.57186        3.12329        0.00934
C          3.46737        5.17547       -1.25569
C          1.45098        4.30537       -2.44030
C          1.41265        4.49986        0.04997
H          4.12765        4.94295       -2.11855
H          3.07764        6.20878       -1.37905
H          4.08002        5.19062       -0.33129
H          0.58970        3.60536       -2.41299
H          1.05954        5.34350       -2.52823
H          2.06121        4.08570       -3.34174
H          0.57002        3.78112        0.13208
H          1.98522        4.48746        0.99970
H          0.99494        5.52564       -0.04585
Na         4.10002        2.36352       -3.05172
C          9.98820        3.22078       -9.56967
C         10.20507        5.10269       -8.15330
O          9.32099        4.22322       -8.83466
C          8.96954        2.43719      -10.38136
C         11.07639        4.43870       -7.07651
H         10.70171        3.67997      -10.29038
H         10.50116        2.49972       -8.89890
H         10.84991        5.63070       -8.89087
H          9.59660        5.89317       -7.66666
H         11.76098        3.68071       -7.51012
H         11.71962        5.21163       -6.60208
H         10.44726        3.96871       -6.29362
H          8.42835        3.11471      -11.07538
H          9.48986        1.65408      -10.97265
H          8.23858        1.94921       -9.70182
C          4.66658        3.28474       -9.19527
C          3.42974        2.96142       -8.67662
C          3.58539        2.90478       -7.30799
C          4.91227        3.18996       -7.05931
N          5.58044        3.42051       -8.21358
C          5.55891        3.24192       -5.72018
N          5.41002        1.97193       -4.98755
C          6.21569        0.78467       -5.33998
H          2.51705        2.78509       -9.23276
H          4.89055        3.41088      -10.24925
H          2.81659        2.67035       -6.58067
H          5.03326        4.02472       -5.13699
H          6.61581        3.55141       -5.79238
C          7.71887        1.12353       -5.28094
C          5.87936       -0.31590       -4.29923
C          5.87638        0.25427       -6.75542
H          7.99120        1.51177       -4.27842
H          8.32610        0.21829       -5.50059
H          7.98898        1.87707       -6.05242
H          5.21699       -1.10298       -4.72288
H          6.78926       -0.81335       -3.90415
H          5.33423        0.10975       -3.42950
H          4.79244        0.01400       -6.83492
H          6.13236        0.98046       -7.54748
H          6.45402       -0.66822       -6.97728
