81
speciation793.ct
Na         5.99986       -3.57932       -1.70106
Mg         3.59663       -6.84434        0.60900
C          4.35115       -9.01768       -0.95080
C          5.00147       -9.20861        1.31099
O          4.68364       -8.33646        0.24982
C          3.08608       -9.88794       -0.87646
C          5.37519       -8.38234        2.52924
H          4.18227       -8.24556       -1.72844
H          5.21348       -9.62508       -1.30789
H          4.15114       -9.86450        1.59160
H          5.89283       -9.81835        1.03698
H          4.49425       -7.79805        2.87027
H          5.70559       -9.05320        3.34988
H          6.20188       -7.68435        2.27731
H          2.21665       -9.29610       -0.54297
H          2.85487      -10.28850       -1.88601
H          3.22273      -10.75710       -0.20197
H          2.29136        1.03947       -0.86217
C          3.76719        1.41459       -2.41735
C          3.38175        0.90827       -1.00966
C          3.59033        2.92137       -2.66890
H          4.83587        1.26119       -2.60971
H          3.18110        0.83869       -3.16353
H          3.84446        3.10171       -3.73827
H          2.54123        3.23892       -2.50288
C          4.55651        3.77906       -1.83817
H          3.85425        1.57770       -0.27108
H          4.30896        3.73905       -0.75916
H          5.60632        3.43718       -1.98115
H          4.49708        4.83733       -2.16952
C          2.50414       -1.66451        2.20254
C          2.99155       -2.21804        3.37204
C          4.30253       -2.58547        3.12609
C          4.55620       -2.24113        1.81610
N          3.46706       -1.67634        1.27006
C          5.85630       -2.45075        1.06699
N          5.76210       -1.95740       -0.33013
C          6.75437       -0.91454       -0.70041
H          2.44697       -2.35284        4.29549
H          1.50240       -1.29366        2.03574
H          4.98696       -3.05558        3.81968
H          6.10286       -3.53207        1.04787
H          6.64723       -1.93936        1.64839
C          8.23460       -1.33694       -0.52006
C          6.54618       -0.67494       -2.19923
C          6.52784        0.35178        0.14921
H          8.47297       -2.24313       -1.10816
H          8.89864       -0.50859       -0.86793
H          8.49732       -1.52313        0.53937
H          5.47300       -0.64625       -2.43088
H          7.08664        0.23250       -2.55246
H          6.91871       -1.54157       -2.78600
H          5.46760        0.50502        0.32010
H          6.94389        0.24072        1.17232
H          6.99303        1.25321       -0.30451
Mg         3.81503       -1.28676       -0.48696
C          1.55939       -1.92206       -2.21447
C          0.72776       -2.84831       -2.79072
C          1.16121       -4.08271       -2.36627
C          2.21150       -3.84365       -1.50384
N          2.49443       -2.51411       -1.43597
C          2.91753       -4.96467       -0.80239
N          2.62668       -5.12232        0.63486
C          1.28158       -5.57272        1.10199
H         -0.10743       -2.66797       -3.45401
H          1.47198       -0.85389       -2.35214
H          0.72761       -5.03907       -2.61593
H          2.70163       -5.92304       -1.31556
H          4.00755       -4.80728       -0.92685
C          0.93299       -6.97022        0.54983
C          1.35015       -5.67066        2.63496
C          0.13269       -4.59785        0.76320
H          1.69319       -7.70359        0.88090
H         -0.05149       -7.31491        0.93578
H          0.86999       -6.96871       -0.55779
H          1.56336       -4.67290        3.07180
H          0.38759       -6.03396        3.05936
H          2.15484       -6.36879        2.94853
H          0.35039       -3.57410        1.12979
H         -0.09757       -4.57078       -0.30982
H         -0.81179       -4.94302        1.24185
