110
speciation2121.ct
Na         1.07155        0.06793        0.01632
Mg         4.27281       -1.41810        1.55194
C         -1.68947        1.41039       -0.12720
C         -2.11571       -0.66213        0.87398
O         -1.24845        0.06793        0.01632
C         -1.61825        2.24590        1.16422
C         -1.65892       -2.09565        1.03308
H         -1.02704        1.89020       -0.87751
H         -2.71312        1.44793       -0.56182
H         -2.17004       -0.23748        1.89759
H         -3.12920       -0.70171        0.41586
H         -0.76817       -2.09833        1.66656
H         -2.42962       -2.68153        1.57622
H         -1.45681       -2.56663        0.04851
H         -0.60612        2.20908        1.60972
H         -1.86703        3.30253        0.93426
H         -2.35011        1.90573        1.92406
H          5.27135        0.22959        3.59851
C          5.24762       -1.32482        4.93886
C          4.60373       -0.63644        3.72497
C          5.41692       -0.30002        6.09530
H          4.63938       -2.19359        5.26530
H          6.25694       -1.67682        4.63898
H          5.99787        0.57645        5.72821
H          4.42491        0.06717        6.43867
C          6.18132       -0.86404        7.28943
H          3.60191       -0.28642        4.05708
H          5.60953       -1.68204        7.77244
H          7.17490       -1.23884        6.96493
H          6.34562       -0.05418        8.03583
C          4.73834        0.73077       -4.37479
C          5.88388        0.59709       -3.61439
C          5.48809        0.12295       -2.38852
C          4.11479        0.02294       -2.44142
N          3.64695        0.37695       -3.66530
C          3.24918       -0.48655       -1.34709
N          3.44155        0.06793        0.01632
C          3.54200        1.53457        0.32492
H          6.89923        0.80074       -3.92486
H          4.70859        1.05111       -5.40702
H          6.12382       -0.11831       -1.54680
H          3.45381       -1.56742       -1.27189
H          2.20104       -0.37013       -1.68602
C          2.23025        2.31624        0.09462
C          3.82674        1.59132        1.80298
C          4.67642        2.28723       -0.39465
H          1.41466        1.94757        0.73877
H          2.35725        3.37569        0.41238
H          1.92740        2.30501       -0.97118
H          4.82075        1.13606        1.88979
H          3.86739        2.61523        2.22515
H          3.04098        1.01540        2.34112
H          5.65970        1.80762       -0.21361
H          4.47287        2.38615       -1.47621
H          4.74014        3.32752       -0.00119
Na         1.55013        0.31536       -4.76823
Mg        -0.36008        1.50137       -7.27071
C          3.16522       -4.13794        0.92378
C          1.89664       -2.70969        2.34849
O          3.16738       -3.01683        1.81392
C          2.09691       -4.14968       -0.18250
C          1.31241       -3.82059        3.24526
H          4.15327       -4.18207        0.43371
H          3.09649       -5.08022        1.51401
H          2.00543       -1.81052        2.98551
H          1.23234       -2.42258        1.52594
H          2.00726       -4.04282        4.08451
H          0.34434       -3.48508        3.67096
H          1.12071       -4.75443        2.67969
H          2.15640       -3.24095       -0.80073
H          2.26772       -5.03183       -0.83829
H          1.07227       -4.24612        0.22861
H          5.95713       -2.65614       -0.10930
C          6.80536       -3.37977        1.75085
C          6.18030       -2.24743        0.89941
C          8.08994       -3.94730        1.11374
H          7.03888       -2.98637        2.76382
H          6.07036       -4.20587        1.86216
H          7.85798       -4.35751        0.10785
H          8.84252       -3.13875        1.00421
C          8.70947       -5.07150        1.95363
H          6.90356       -1.41227        0.79973
H          8.98885       -4.69781        2.96224
H          8.00078       -5.92028        2.06528
H          9.62887       -5.45051        1.45372
C         -0.79794        0.34416      -10.04439
C         -1.00193       -0.98471      -10.35564
C         -0.99082       -1.68284       -9.16279
C         -0.78319       -0.75456       -8.17635
N         -0.66225        0.47132       -8.71327
C         -0.68537       -1.00553       -6.66751
N         -0.54668        0.25378       -5.87117
C         -1.77538        0.72689       -5.18181
H         -1.14444       -1.40490      -11.34015
H         -0.74485        1.16561      -10.74227
H         -1.11489       -2.75577       -9.02922
H          0.19888       -1.64383       -6.48625
H         -1.57376       -1.58974       -6.36243
C         -2.22297       -0.23871       -4.05904
C         -1.46392        2.09171       -4.54277
C         -2.93935        0.92595       -6.18397
H         -1.42230       -0.36581       -3.30184
H         -3.12558        0.16452       -3.54752
H         -2.50508       -1.23714       -4.44628
H         -1.16670        2.82812       -5.32020
H         -2.35532        2.49088       -4.00912
H         -0.63326        1.99758       -3.81113
H         -2.65085        1.64116       -6.98403
H         -3.24125       -0.02821       -6.66240
H         -3.83625        1.33332       -5.66715
