95
speciation1786.ct
Na         0.93027        0.04062       -0.05906
Mg        -4.11293       -2.69512        2.15233
C         -6.61118       -2.97895        3.26942
C         -6.57919       -3.54855        0.98293
O         -5.99871       -2.76367        2.01157
C         -6.43259       -4.39314        3.83659
C         -5.94462       -3.21014       -0.35773
H         -6.13410       -2.27058        3.97943
H         -7.68688       -2.70257        3.24013
H         -6.43421       -4.63423        1.16221
H         -7.66242       -3.31041        0.90002
H         -4.87355       -3.50274       -0.36079
H         -6.46914       -3.76656       -1.16585
H         -6.03145       -2.12337       -0.56111
H         -5.36698       -4.67670        3.85820
H         -6.81256       -4.42272        4.87953
H         -7.00158       -5.14717        3.25584
H          0.22362        3.56305        0.38872
C         -0.79240        5.46383        0.36676
C          0.50070        4.63840        0.34176
C         -1.66318        5.18660       -0.86005
H         -1.36701        5.21007        1.28855
H         -0.53998        6.54352        0.40499
H         -1.08900        5.45459       -1.77133
H         -1.93230        4.10778       -0.90465
C         -2.94994        6.01212       -0.82217
H          1.06964        4.87133        1.26765
H         -3.57983        5.71603        0.04461
H         -2.71428        7.09511       -0.74474
H         -3.52969        5.84271       -1.75409
C         -2.26385        0.54102       -1.00045
C         -3.58227        0.32181       -0.64852
C         -3.56269       -0.34089        0.55768
C         -2.23270       -0.49855        0.88446
N         -1.43973        0.04062       -0.05906
C         -1.70971       -1.15022        2.11294
N         -2.13120       -2.56124        2.18256
C         -1.64339       -3.28778        3.37766
H         -4.46149        0.61130       -1.20812
H         -1.92645        1.03683       -1.90031
H         -4.41843       -0.66857        1.13174
H         -0.60444       -1.07607        2.08213
H         -2.10211       -0.56916        2.97126
C         -2.16732       -2.63660        4.68097
C         -2.18384       -4.72358        3.30267
C         -0.10155       -3.36979        3.40694
H         -3.27629       -2.55417        4.65343
H         -1.87524       -3.23781        5.56756
H         -1.74013       -1.62389        4.83251
H         -1.80723       -5.24024        2.39478
H         -1.87480       -5.31003        4.19555
H         -3.28626       -4.71815        3.25276
H          0.27171       -3.83852        2.47114
H          0.36899       -2.37364        3.51954
H          0.23772       -3.98397        4.26792
Na         1.32910        1.50855       -1.65257
Mg         1.92264        4.70919       -1.30919
H          2.82435        6.60100       -3.07005
C          2.51339        8.13321       -1.61305
C          2.10597        6.78123       -2.24027
C          1.54468        8.60331       -0.52230
H          3.53920        8.05834       -1.19605
H          2.52742        8.91156       -2.41481
H          0.51770        8.70646       -0.93934
H          1.53213        7.85560        0.29591
C          1.97310        9.95945        0.04753
H          1.11744        6.94101       -2.72420
H          3.00249        9.89874        0.46055
H          1.94829       10.74314       -0.74110
H          1.28310       10.26308        0.86362
C          4.08325       -1.04900        0.03613
C          5.40788       -0.67719        0.12281
C          5.43463        0.70169        0.08791
C          4.11906        1.11744       -0.04603
N          3.30027        0.04062       -0.05906
C          3.66580        2.56422       -0.15976
N          2.94217        2.86876       -1.42239
C          3.71955        2.76742       -2.69313
H          6.25797       -1.34044        0.21183
H          3.70719       -2.06315        0.06042
H          6.31549        1.32810        0.13553
H          2.98377        2.76768        0.69129
H          4.53150        3.24900       -0.04426
C          4.26907        1.33793       -2.97215
C          2.75865        3.04849       -3.85853
C          4.84952        3.81944       -2.70581
H          3.45050        0.58929       -2.86501
H          4.67841        1.24539       -3.99893
H          5.10842        1.04485       -2.32942
H          2.22863        4.01062       -3.73044
H          3.32615        3.07370       -4.81724
H          2.00745        2.23201       -3.94790
H          5.65659        3.56539       -1.98607
H          4.43912        4.81243       -2.42517
H          5.31579        3.90307       -3.71019
