110
speciation2367.ct
Na         3.70848       -0.15836       -2.27904
Mg         4.36649        1.89928        0.87957
C          4.66375        0.89993       -5.05951
C          2.83079       -0.56921       -5.30952
O          4.00027       -0.25576       -4.57855
C          3.82743        2.18541       -4.99135
C          2.17235       -1.80112       -4.69894
H          5.55316        1.04631       -4.41119
H          5.05563        0.73140       -6.08658
H          2.07918        0.24585       -5.27859
H          3.10099       -0.81632       -6.36079
H          1.83926       -1.57904       -3.66277
H          1.28398       -2.08755       -5.30217
H          2.88337       -2.65221       -4.67939
H          3.40504        2.31899       -3.97330
H          4.46958        3.05783       -5.23426
H          3.00590        2.17147       -5.73685
H          3.65239        4.43671        0.24648
C          1.79093        3.59390       -0.46682
C          3.31208        3.49499       -0.22928
C          1.00696        3.60033        0.84871
H          1.55661        4.51360       -1.04486
H          1.46218        2.76794       -1.12273
H          1.27133        2.70781        1.45006
H          1.27221        4.51199        1.42376
C         -0.50376        3.56924        0.61049
H          3.77248        3.42743       -1.23897
H         -0.82725        4.44173        0.00488
H         -0.79345        2.63297        0.08494
H         -1.03346        3.59678        1.58672
C         -0.35713       -0.81201        2.91814
C          0.77574       -0.70413        3.64302
C          1.74913       -0.33944        2.76086
C          1.19700       -0.25689        1.50777
N         -0.12418       -0.52828        1.63797
C          1.90570        0.03184        0.17059
N          3.41039       -0.05885        0.07003
C          3.78160       -1.62334        0.37427
H          0.94045       -0.90699        4.69890
H         -1.31238       -1.12359        3.33533
H          2.76120       -0.22371        3.04383
H          1.54517        0.97727       -0.19881
H          1.46227       -0.65504       -0.57401
C          3.04455       -2.61125       -0.57745
C          5.24095       -2.07315        0.14146
C          3.56544       -2.23434        1.81686
H          3.27907       -2.38592       -1.63456
H          3.38079       -3.66462       -0.39535
H          1.96069       -2.67827       -0.39014
H          5.81793       -1.91353        1.07836
H          5.40513       -3.17323        0.14371
H          5.64248       -1.73949       -0.83293
H          4.13986       -1.70091        2.60917
H          2.52111       -2.46721        2.07950
H          3.98648       -3.26724        1.90197
Na        -1.74339       -0.67285        0.25415
Mg         9.67657        3.86963        3.06042
C         10.14207        5.10753        5.49726
C          9.93382        2.71783        5.59334
O          9.58589        3.92015        4.93497
C         11.64951        5.07941        5.79532
C          9.19126        2.57921        6.92136
H          9.97500        5.91786        4.75751
H          9.56940        5.40242        6.40409
H          9.60724        1.87451        4.95316
H         11.02780        2.58660        5.71920
H          8.09184        2.62886        6.74729
H          9.43521        1.61231        7.40135
H          9.47524        3.39597        7.62410
H         12.22685        4.81532        4.88619
H         11.96678        6.08530        6.14402
H         11.89039        4.37232        6.61862
H          2.81418        1.87132        2.94880
C          4.00030        2.80012        4.37799
C          3.90171        1.96355        3.09286
C          3.33502        2.10341        5.60081
H          5.06973        2.97827        4.60888
H          3.48367        3.76612        4.20750
H          2.25571        1.90473        5.40425
H          3.81971        1.12287        5.81889
C          3.43870        2.98434        6.84803
H          4.41458        1.01117        3.34688
H          4.50342        3.17198        7.09408
H          2.94242        3.95959        6.67002
H          2.94207        2.48814        7.71099
C         10.70572        3.96436        0.21317
C         10.22202        3.94434       -1.08412
C          8.85104        3.93313       -0.98779
C          8.54643        3.92831        0.36001
N          9.68372        3.96362        1.09641
C          7.16397        3.75345        0.95111
N          6.56088        2.45926        0.53755
C          7.42135        1.29819        0.83908
H         10.80477        3.90029       -1.99612
H         11.75278        3.93490        0.48985
H          8.14422        3.86702       -1.81403
H          6.52057        4.58711        0.60405
H          7.22041        3.80309        2.05862
C          7.68923        1.11803        2.35959
C          6.59637        0.22631        0.38649
C          8.72827        1.09603       -0.02312
H          6.73426        1.15952        2.92528
H          8.16018        0.13260        2.57313
H          8.35700        1.90586        2.75606
H          6.33204        0.35401       -0.69157
H          7.21600       -0.68249        0.51554
H          5.67566        0.24540        1.00643
H          8.51455        1.25095       -1.10627
H          9.59972        1.66398        0.29932
H          9.13237        0.05934        0.05565
