95
speciation1796.ct
Na        -1.29005        3.54608        0.32560
Mg         3.97718        2.45241        0.36634
C          4.84457        0.97976        2.48833
C          5.02459        3.33652        2.84371
O          5.11705        2.25547        1.92374
C          3.57554        0.89830        3.34337
C          6.15680        3.32710        3.87490
H          4.70889        0.28625        1.63180
H          5.72449        0.59738        3.04775
H          5.11108        4.28565        2.27475
H          4.03739        3.37974        3.34581
H          7.13697        3.45655        3.37036
H          6.00853        4.16312        4.59118
H          6.16807        2.38367        4.45832
H          2.73820        1.36112        2.79327
H          3.34391       -0.16280        3.57371
H          3.69534        1.43050        4.30826
H          6.33054        3.32953       -3.99238
C          6.68007        3.78332       -1.91042
C          5.72862        3.59910       -3.10429
C          7.55938        2.56458       -1.65992
H          7.34343        4.65425       -2.11678
H          6.11649        4.00489       -0.99315
H          6.92888        1.67736       -1.46112
H          8.17745        2.38632       -2.56384
C          8.48416        2.80489       -0.46557
H          5.32059        4.59976       -3.34137
H          9.10643        3.71243       -0.62608
H          7.89100        2.93580        0.46556
H          9.15802        1.93243       -0.34033
C         -0.28410        1.15799        1.88468
C          0.59089        0.12160        1.99169
C          1.42093        0.18820        0.88954
C          1.02632        1.29196        0.15600
N         -0.04874        1.87255        0.74827
C          1.65052        1.69712       -1.19154
N          2.80793        2.65442       -1.23121
C          2.34931        4.06598       -0.85490
H          0.60690       -0.60630        2.79869
H         -1.07244        1.41896        2.57138
H          2.22456       -0.49935        0.66521
H          2.00179        0.76776       -1.62240
H          0.84271        1.95482       -1.88815
C          2.04740        4.24034        0.66787
C          3.46546        5.07834       -1.09829
C          1.11050        4.54586       -1.64633
H          2.90477        3.94635        1.29618
H          1.82056        5.30419        0.90529
H          1.17185        3.72817        1.04622
H          3.71819        5.11504       -2.15902
H          3.14227        6.10785       -0.82077
H          4.32470        4.85679       -0.44308
H          1.28513        4.46951       -2.73627
H          0.20545        3.96903       -1.37215
H          0.87584        5.60347       -1.40647
Na         6.74264        1.87702       -8.69284
Mg         3.95316        2.27904       -3.00861
H          5.11404        0.10554       -3.84460
C          3.48739       -1.01100       -2.88827
C          4.48751        0.18223       -2.93691
C          2.40874       -0.95229       -3.98769
H          4.03440       -1.97469       -2.93023
H          2.98031       -1.01244       -1.90577
H          1.58850       -1.68034       -3.78290
H          1.94661        0.05108       -3.95409
C          2.95013       -1.24932       -5.38983
H          5.13461        0.11724       -2.03989
H          2.34577       -0.70720       -6.14873
H          4.00882       -0.94737       -5.50496
H          2.87295       -2.33733       -5.60171
C          1.64299        2.54362       -4.84273
C          1.13852        2.53766       -6.12134
C          2.21439        2.44858       -6.96593
C          3.34360        2.42759       -6.16490
N          2.98681        2.47557       -4.83882
C          4.73705        2.23495       -6.72854
N          4.98235        2.89615       -8.03269
C          5.38672        4.32399       -8.11430
H          0.09572        2.55982       -6.40255
H          1.04091        2.56442       -3.95735
H          2.17474        2.38513       -8.04609
H          5.54757        2.37747       -5.99553
H          4.76857        1.15104       -6.97829
C          6.62746        4.60349       -7.24661
C          5.75233        4.61317       -9.58627
C          4.23878        5.27060       -7.72042
H          7.46489        3.93642       -7.53958
H          6.96113        5.65719       -7.37448
H          6.40340        4.45502       -6.17335
H          4.88588        4.41560      -10.25571
H          6.06191        5.67374       -9.73139
H          6.59233        3.96760       -9.92621
H          3.36063        5.12186       -8.38495
H          3.93216        5.11463       -6.66820
H          4.56906        6.33068       -7.83038
