110
speciation2147.ct
Na         5.06690        3.63437        3.21896
Mg         5.39789        8.78409       -3.15636
C          3.43276        4.49833        5.57090
C          5.43039        3.48397        6.25379
O          4.44578        3.56241        5.23608
C          3.91254        5.95683        5.61847
C          6.40221        2.36087        5.94378
H          2.64147        4.42018        4.79757
H          2.93916        4.22481        6.53164
H          6.01423        4.42411        6.33911
H          4.95599        3.23781        7.23241
H          6.93879        2.57932        4.99713
H          7.14380        2.27545        6.76720
H          5.85605        1.39915        5.84985
H          4.40314        6.23248        4.66304
H          3.04049        6.62492        5.78369
H          4.61360        6.12873        6.46145
H          7.97821        9.91912       -3.61605
C          8.83676        8.21809       -2.61947
C          7.69223        9.26603       -2.76411
C          8.84173        7.29824       -3.84314
H          9.82673        8.73509       -2.53124
H          8.70310        7.62175       -1.69072
H          7.84677        6.81599       -3.88354
H          9.00130        7.91628       -4.75196
C          9.89688        6.18519       -3.84071
H          7.74885        9.91731       -1.86247
H         10.93250        6.58627       -3.88084
H          9.79021        5.51964       -2.95819
H          9.73819        5.56753       -4.75310
C          6.75793        4.25170        0.62437
C          6.81636        4.19377       -0.74458
C          5.66062        3.59915       -1.17357
C          4.91868        3.29618       -0.04242
N          5.57480        3.71060        1.06099
C          3.60741        2.55788        0.00037
N          2.79413        2.66638       -1.23898
C          1.53122        1.84610       -1.19249
H          7.63959        4.56591       -1.36861
H          7.49310        4.66580        1.27434
H          5.40161        3.40388       -2.19769
H          3.89130        1.50331        0.19705
H          3.05166        2.94381        0.87321
C          0.62673        2.35554       -0.05034
C          0.77882        2.02016       -2.52965
C          1.72608        0.31003       -0.93934
H          0.49679        3.45422       -0.10870
H         -0.37150        1.86807       -0.08900
H          1.05795        2.08825        0.93645
H          1.34677        1.56888       -3.37326
H         -0.21363        1.51689       -2.49146
H          0.60547        3.09253       -2.75876
H          2.23662       -0.27773       -1.73436
H          2.25442        0.11502        0.01350
H          0.72196       -0.16194       -0.82300
Na         2.01724        4.85774       -1.52228
Mg         3.89409        2.33758       -2.86443
C          3.12631        9.67226       -5.35892
C          5.42147        9.36614       -5.78255
O          4.38945        9.16164       -4.86439
C          2.43612        8.74916       -6.40395
C          5.78057        8.02942       -6.39442
H          2.43920        9.84611       -4.50922
H          3.21853       10.67861       -5.83432
H          5.18550       10.12034       -6.56440
H          6.28598        9.78206       -5.22957
H          4.87317        7.53457       -6.79759
H          6.50621        8.19013       -7.21214
H          6.21686        7.37097       -5.61471
H          2.94040        8.82355       -7.39305
H          1.38151        9.06976       -6.57728
H          2.41721        7.68024       -6.10258
H          5.81874        2.77349       -4.54898
C          4.34910        1.95827       -5.93134
C          5.02168        2.00052       -4.53072
C          3.87138        3.29599       -6.57295
H          5.14174        1.59433       -6.62021
H          3.52628        1.21382       -5.94120
H          4.70314        4.03213       -6.57492
H          3.62525        3.07607       -7.63768
C          2.61532        3.95869       -5.99808
H          5.49609        1.01931       -4.31838
H          1.73165        3.29245       -6.09835
H          2.39693        4.87700       -6.59548
H          2.75171        4.26114       -4.94239
C          5.46523        7.23729       -0.57230
C          4.65388        6.67078        0.39082
C          3.36864        6.87779       -0.00601
C          3.44376        7.56669       -1.19596
N          4.72385        7.80757       -1.54435
C          2.25892        7.96485       -1.99173
N          1.16247        7.02380       -1.70450
C         -0.14863        7.41312       -2.29344
H          4.94841        6.15255        1.28678
H          6.54372        7.22525       -0.55587
H          2.47624        6.55528        0.51594
H          2.53410        7.91280       -3.06191
H          2.01364        9.00634       -1.70422
C         -0.05895        7.53285       -3.82746
C         -1.17617        6.33300       -1.93270
C         -0.67198        8.76327       -1.71673
H          0.34726        6.59982       -4.27109
H         -1.05844        7.73699       -4.26973
H          0.59181        8.38226       -4.12097
H         -1.30041        6.27099       -0.83146
H         -2.16801        6.57159       -2.37909
H         -0.84747        5.34481       -2.31406
H         -0.75351        8.72113       -0.61092
H         -0.02904        9.62511       -1.98903
H         -1.67954        8.99973       -2.12647
