96
speciation1610.ct
Na         1.38160        1.14447       -0.93633
Mg         3.61323       -0.71862        0.81399
C          2.39650       -3.61329        0.26901
C          0.82740       -1.98111        0.92645
O          2.18858       -2.24570        0.63172
C          1.71604       -4.06784       -1.02991
C          0.21102       -2.89609        2.01144
H          3.44486       -3.73779        0.17853
H          2.16939       -4.33216        1.08006
H          0.77141       -0.94659        1.30674
H          0.22292       -2.01996       -0.00278
H          0.79057       -2.83800        2.95336
H         -0.82923       -2.57989        2.22041
H          0.14671       -3.95950        1.69090
H          1.91671       -3.36013       -1.85524
H          2.10285       -5.06972       -1.32483
H          0.62037       -4.17316       -0.88175
H          1.94025        0.20300        2.98206
C          3.57869        1.40911        3.65203
C          3.04146        0.12684        2.97908
C          3.10333        2.66208        2.92923
H          3.26684        1.49457        4.71696
H          4.69023        1.36362        3.62671
H          3.68892        3.54955        3.25449
H          3.27490        2.44249        1.91080
C          1.62103        2.99802        2.99296
H          3.26553       -0.67245        3.70664
H          0.99601        2.15392        2.64248
H          1.33482        3.29632        4.01877
H          1.43281        3.85024        2.30078
C          6.67187        2.91683        1.83330
C          6.20087        4.20679        1.67455
C          5.17485        4.13009        0.77731
C          5.02201        2.78679        0.45209
N          5.97645        2.02746        1.07483
C          3.84882        2.41661       -0.44990
N          3.49577        0.97711       -0.62267
C          4.06519        0.45690       -1.87417
H          6.54733        5.11405        2.16281
H          7.48374        2.65864        2.49416
H          4.56254        4.96320        0.44831
H          2.93469        2.92490       -0.07856
H          3.99459        2.95848       -1.40097
C          5.60109        0.68566       -1.82008
C          3.58288       -0.99773       -1.94629
C          3.53881        1.11155       -3.17854
H          5.99692        0.28752       -0.86655
H          6.13001        0.30906       -2.71270
H          5.88405        1.75674       -1.80719
H          2.47036       -1.01572       -1.93715
H          3.90300       -1.51638       -2.87067
H          3.90258       -1.56214       -1.06459
H          2.44754        0.95713       -3.29554
H          3.75935        2.18642       -3.29637
H          4.04793        0.61979       -4.03925
Mg         6.66420       -0.01435        1.25169
C          8.96313       -1.52149        2.97423
C          9.45853        0.51446        1.85643
O          8.46776       -0.46638        2.11661
C          9.23534       -1.08880        4.41071
C         10.73862       -0.03433        1.20076
H          8.29089       -2.36855        3.06407
H          9.82309       -2.05443        2.52799
H          9.02206        1.23887        1.14132
H          9.69420        1.08550        2.77849
H         10.49040       -0.57250        0.26202
H         11.42603        0.80419        0.97400
H         11.30379       -0.71079        1.87535
H          8.32231       -0.64101        4.85430
H          9.51872       -1.98410        5.00782
H         10.07885       -0.37428        4.45698
C          3.02114       -4.29642        3.62052
C          3.87641       -5.21591        3.07001
C          4.89965       -4.50141        2.45241
C          4.63746       -3.20996        2.54631
N          3.46703       -3.01073        3.30735
C          5.51002       -2.07853        2.10213
N          5.58118       -1.68944        0.68436
C          6.38461       -2.63003       -0.27900
H          3.81515       -6.28712        3.15666
H          2.14204       -4.53660        4.19766
H          5.78868       -4.94441        2.01161
H          6.46316       -2.22838        2.51209
H          5.16409       -1.17178        2.62124
C          5.63407       -3.90116       -0.77083
C          6.79333       -1.98455       -1.62824
C          7.73362       -3.07435        0.31027
H          4.76288       -3.64208       -1.40676
H          6.27376       -4.50970       -1.44795
H          5.35647       -4.61938       -0.00201
H          7.49780       -1.13855       -1.51373
H          7.31075       -2.70578       -2.30282
H          5.92211       -1.74325       -2.22635
H          8.38943       -2.19646        0.44793
H          7.62344       -3.64777        1.24442
H          8.27321       -3.73784       -0.40507
