83
speciation718.ct
Na         2.67511       -0.02386        0.79716
Mg         0.51916        1.84377       -0.72866
C         -0.48072        4.60172        0.44292
C         -0.37133        2.89479        2.09493
O         -0.30530        3.20287        0.68464
C          0.55235        5.53319        1.10569
C         -1.64562        3.38886        2.83168
H         -0.49042        4.78027       -0.63743
H         -1.50612        4.91878        0.72346
H         -0.35708        1.79341        2.21535
H          0.51594        3.28415        2.63865
H         -2.56423        2.97101        2.37142
H         -1.61531        3.07481        3.89926
H         -1.72298        4.49744        2.85647
H          1.57652        5.31400        0.77397
H          0.33477        6.58333        0.82038
H          0.51337        5.48453        2.21397
C          5.43038        1.17928        2.44080
C          5.91518        2.48069        2.46943
C          5.01381        3.25264        1.77129
C          4.04878        2.37637        1.34757
N          4.28481        1.12085        1.71527
C          2.85828        2.68862        0.51812
N          2.70351        1.75860       -0.60232
C          3.85059        1.86922       -1.65199
H          6.82942        2.85207        2.92514
H          5.93009        0.32393        2.88876
H          5.06593        4.31404        1.56118
H          2.83167        3.73309        0.20635
H          2.01131        2.49321        1.18827
C          5.27741        1.51903       -1.09782
C          3.64418        0.90864       -2.83199
C          4.00906        3.28138       -2.30603
H          5.37235        0.55864       -0.57160
H          6.01649        1.47285       -1.92841
H          5.69587        2.31968       -0.47093
H          2.87475        1.23276       -3.52993
H          4.56256        0.70376       -3.42305
H          3.32611       -0.01787       -2.48811
H          3.66946        3.31260       -3.35697
H          3.54525        4.10258       -1.74000
H          5.07307        3.54359       -2.47954
Na         2.84397       -3.53512        1.41122
C          0.02755        1.69109       -3.88753
C          0.72179        3.63250       -2.87814
O         -0.01158        2.42502       -2.64462
C         -0.69762        0.35389       -3.89848
C          0.04052        4.66787       -3.80394
H         -0.54439        2.26601       -4.63750
H          1.02578        1.57221       -4.35024
H          0.97381        4.10939       -1.92227
H          1.67372        3.42491       -3.34749
H         -0.95660        4.96867       -3.43415
H          0.69135        5.56927       -3.88450
H         -0.04847        4.30097       -4.85253
H         -1.38588        0.23856       -3.04289
H         -1.26614        0.25613       -4.85130
H          0.02427       -0.47152       -3.98416
C         -1.86111        0.50262       -0.05788
C         -2.74004       -0.49130        0.32808
C         -1.98567       -1.58581        0.56352
C         -0.66562       -1.23709        0.32018
N         -0.56732        0.07679       -0.07950
C          0.36919       -2.34415        0.54081
N          1.78878       -2.02734        0.32148
C          2.24609       -2.19026       -1.07227
H         -3.81650       -0.41416        0.41610
H         -2.16025        1.50198       -0.32314
H         -2.35791       -2.56065        0.87866
H          0.26801       -2.68323        1.59346
H          0.07303       -3.22626       -0.06371
C          1.37655       -1.30304       -1.98156
C          3.74238       -1.84001       -1.04497
C          2.19410       -3.61817       -1.64959
H          1.33768       -0.25697       -1.61254
H          1.74136       -1.33145       -3.02430
H          0.32963       -1.67584       -2.02060
H          4.30618       -2.52572       -0.38389
H          4.20901       -1.88113       -2.05099
H          3.88319       -0.85133       -0.61737
H          2.83511       -4.30867       -1.06780
H          1.17204       -4.02620       -1.73872
H          2.60187       -3.57914       -2.68974
