96
speciation1375.ct
Na         1.02693       -0.04000        0.17280
Mg        -1.64857        1.17544       -1.69827
C         -0.32836        0.75034        2.95358
C         -0.02936       -1.61696        2.74251
O          0.01058       -0.33999        2.10034
C          0.46495        0.82349        4.27045
C         -1.41963       -2.01719        3.26116
H         -0.12870        1.68575        2.39248
H         -1.42140        0.75235        3.16234
H          0.23573       -2.39521        2.00119
H          0.74009       -1.69393        3.53823
H         -2.15764       -2.03744        2.43269
H         -1.36471       -3.03559        3.70412
H         -1.77930       -1.33169        4.05449
H          1.55167        0.86074        4.07668
H          0.18377        1.74103        4.82744
H          0.24191       -0.03664        4.93661
H         -4.06035        1.62061       -0.72893
C         -2.77434        3.09211        0.26127
C         -3.04336        1.70131       -0.29494
C         -2.85232        4.20414       -0.79258
H         -3.50657        3.29984        1.07045
H         -1.75445        3.09332        0.70321
H         -2.62182        5.16400       -0.28138
H         -2.09142        4.04114       -1.58592
C         -4.23763        4.32591       -1.42880
H         -2.97462        0.98509        0.54777
H         -4.47774        3.42680       -2.03253
H         -5.01207        4.46098       -0.64363
H         -4.25900        5.20535       -2.10526
C         -1.62606        2.64760       -4.41525
C         -0.69558        2.58411       -5.43924
C          0.26543        1.67683       -5.04235
C         -0.12251        1.22380       -3.79223
N         -1.25475        1.81560       -3.41467
C          0.57978        0.20642       -2.92317
N         -0.21430       -0.16518       -1.72389
C         -0.94269       -1.46752       -1.84391
H         -0.72581        3.13360       -6.37411
H         -2.51531        3.26091       -4.39999
H          1.14987        1.38100       -5.59996
H          1.55680        0.63235       -2.61571
H          0.78183       -0.66044       -3.56198
C          0.02190       -2.66700       -1.97903
C         -1.74140       -1.68002       -0.55950
C         -1.94775       -1.46189       -3.02187
H          0.76541       -2.66618       -1.15918
H         -0.54128       -3.62445       -1.94105
H          0.55961       -2.68217       -2.93756
H         -2.50413       -0.89797       -0.43671
H         -2.26460       -2.65996       -0.56285
H         -1.05500       -1.65692        0.29545
H         -2.67506       -0.62881       -2.91240
H         -1.43986       -1.35801       -4.00235
H         -2.52353       -2.41434       -3.04579
Mg         3.53509       -0.38501       -1.96418
C          3.85488       -3.18236       -2.78359
C          3.22906       -1.60156       -4.44268
O          3.21441       -1.93386       -3.05361
C          5.37072       -3.24098       -3.02747
C          2.28740       -2.47158       -5.29687
H          3.67979       -3.49397       -1.74032
H          3.34418       -3.98587       -3.34127
H          2.89572       -0.54948       -4.55247
H          4.24395       -1.61505       -4.87339
H          1.23125       -2.35966       -4.99312
H          2.36124       -2.16205       -6.35838
H          2.55503       -3.54510       -5.25926
H          5.69478       -2.82801       -3.99783
H          5.67312       -4.30860       -3.02391
H          5.93193       -2.73557       -2.22261
C          5.06051        1.82567       -3.41396
C          5.53015        3.06310       -3.01484
C          5.17433        3.21506       -1.68658
C          4.49857        2.05581       -1.34042
N          4.44343        1.22148       -2.38372
C          3.88968        1.70183       -0.02225
N          3.27365        0.34388       -0.07531
C          3.93087       -0.66138        0.79180
H          6.07353        3.77231       -3.62229
H          5.16685        1.38782       -4.39730
H          5.37870        4.06705       -1.05333
H          3.12068        2.45467        0.25876
H          4.71747        1.77821        0.70962
C          3.97486       -0.24503        2.28160
C          3.07631       -1.91812        0.69162
C          5.35139       -0.97206        0.28842
H          2.95918        0.02074        2.62240
H          4.35008       -1.08465        2.90598
H          4.64643        0.61329        2.48068
H          2.89768       -2.15417       -0.36320
H          3.52974       -2.78008        1.22114
H          2.09001       -1.72530        1.12871
H          5.31744       -1.23590       -0.78426
H          6.03087       -0.10277        0.40573
H          5.78883       -1.82029        0.86008
