66
speciation205.ct
Na         1.04141        0.04804       -0.07731
Mg        -2.05080        1.74061       -0.75043
H         -2.37274        4.36760       -0.81154
C         -0.23249        4.06776       -1.09795
C         -1.55399        3.72765       -0.42253
C         -0.31245        3.85872       -2.61040
H          0.01411        5.12964       -0.87948
H          0.56568        3.41956       -0.67303
H         -0.53714        2.79190       -2.82916
H         -1.12409        4.49075       -3.03259
C          1.00483        4.24498       -3.27851
H         -1.44778        3.93645        0.66043
H          1.22889        5.31772       -3.09207
H          1.83744        3.62613       -2.88141
H          0.93021        4.08461       -4.37427
C         -4.05787        0.97466       -2.95590
C         -4.34950       -0.25643       -3.51815
C         -3.54551       -1.18408       -2.88359
C         -2.81239       -0.47642       -1.95734
N         -3.10890        0.82592       -2.01483
C         -1.80691       -1.02247       -0.98867
N         -1.32859        0.04804       -0.07731
C         -1.74855       -0.06998        1.34221
H         -5.06776       -0.45756       -4.30091
H         -4.51077        1.91964       -3.22219
H         -3.51031       -2.24997       -3.06606
H         -0.94863       -1.42784       -1.56285
H         -2.27896       -1.86315       -0.44760
C         -1.23566       -1.37772        1.99087
C         -1.11824        1.09519        2.12220
C         -3.28311        0.03539        1.46608
H         -0.13113       -1.44513        1.90103
H         -1.49940       -1.39767        3.07121
H         -1.67863       -2.28877        1.54683
H         -1.49547        2.05818        1.74594
H         -1.37625        1.03900        3.20237
H         -0.01101        1.08345        2.02564
H         -3.63866        0.98955        1.01925
H         -3.79387       -0.80075        0.94684
H         -3.59291        0.01412        2.53327
Mg         1.73138       -2.80763        2.90726
C          2.12405       -0.19893        4.19394
C          2.76497        1.01409        4.05939
C          3.46819        0.96118        2.87454
C          3.22610       -0.28514        2.33372
N          2.40283       -0.98963        3.14113
C          3.80209       -0.81271        1.05108
N          3.41141        0.04804       -0.07731
C          3.93856       -0.33472       -1.40704
H          2.72830        1.84235        4.75748
H          1.49152       -0.49350        5.02184
H          4.09081        1.74188        2.45915
H          3.42490       -1.84590        0.90572
H          4.90293       -0.83113        1.17195
C          3.47251       -1.74735       -1.82118
C          3.38304        0.67690       -2.42285
C          5.48063       -0.26291       -1.43868
H          2.36389       -1.81524       -1.79726
H          3.81653       -1.98024       -2.85263
H          3.89428       -2.52940       -1.15713
H          3.70179        1.70809       -2.15841
H          3.74811        0.44988       -3.44857
H          2.27200        0.64861       -2.43287
H          5.82842        0.74943       -1.14104
H          5.94083       -1.01032       -0.76071
H          5.85962       -0.47939       -2.46081
