110
speciation2329.ct
Na         1.18338       -0.38201        0.69092
Mg         3.32869       -5.80376        2.64453
C         -1.02563        1.60944        0.30179
C          0.30795        2.44242        2.09626
O         -0.05905        1.30930        1.30315
C         -0.78651        2.87650       -0.54053
C         -0.83333        2.91649        3.01433
H         -1.00262        0.76988       -0.41257
H         -2.04370        1.61759        0.74529
H          1.15034        2.16564        2.75592
H          0.68522        3.28557        1.47916
H         -1.08289        2.12988        3.75613
H         -0.52711        3.83442        3.56360
H         -1.74826        3.17234        2.44017
H          0.22817        2.86110       -0.99030
H         -1.53925        2.91899       -1.35594
H         -0.91954        3.80160        0.05999
H          4.62991       -3.62537        3.23479
C          6.29916       -4.89252        3.75012
C          4.78639       -4.62529        3.69230
C          6.94629       -4.92528        2.36050
H          6.76976       -4.07466        4.34332
H          6.48974       -5.85424        4.27187
H          6.51261       -5.76406        1.77671
H          6.74920       -3.97081        1.82442
C          8.46370       -5.11520        2.46076
H          4.41057       -4.58228        4.73616
H          8.93062       -4.25899        2.99498
H          8.70727       -6.05332        3.00284
H          8.90473       -5.17142        1.44254
C         -0.89958       -2.31585       -0.58190
C         -1.42169       -3.53066       -0.97381
C         -0.54752       -4.48316       -0.54229
C          0.47624       -3.81508        0.11861
N          0.26640       -2.46405        0.09463
C          1.62439       -4.59943        0.71347
N          1.71686       -4.58025        2.18370
C          0.58980       -5.13001        2.98865
H         -2.33786       -3.71200       -1.52445
H         -1.36754       -1.37371       -0.79969
H         -0.64200       -5.55521       -0.68189
H          1.57512       -5.65844        0.38787
H          2.56571       -4.19861        0.29371
C          0.38966       -6.62403        2.68547
C          0.98762       -4.96272        4.46224
C         -0.75719       -4.38600        2.79151
H          1.34061       -7.14868        2.83318
H         -0.37052       -7.08214        3.35045
H          0.06191       -6.78315        1.63595
H          1.07779       -3.88358        4.71341
H          0.21944       -5.41126        5.12991
H          1.95835       -5.45960        4.66750
H         -0.60695       -3.28955        2.71700
H         -1.31133       -4.75200        1.90523
H         -1.44068       -4.57386        3.64968
Na         1.98349       -2.53133        2.73842
Mg         4.20892        4.54174        2.04839
C          3.90687        7.26690        2.71485
C          5.29316        6.90251        0.90290
O          4.83700        6.37530        2.13313
C          3.39757        6.70874        4.03419
C          6.29701        5.95523        0.26442
H          4.41316        8.23150        2.94981
H          3.03663        7.44782        2.04358
H          4.45543        7.07479        0.18964
H          5.83706        7.85695        1.08982
H          5.79764        5.01497       -0.03379
H          6.72683        6.42765       -0.64482
H          7.12089        5.72887        0.97404
H          4.24879        6.49121        4.71359
H          2.73671        7.45894        4.52014
H          2.81556        5.78097        3.85810
H          4.82680       -8.14011        2.94408
C          3.18322       -9.06821        1.88751
C          3.72565       -8.01408        2.87792
C          3.75638       -8.86469        0.48432
H          3.46147      -10.08813        2.24440
H          2.07451       -9.02657        1.84685
H          3.49000       -7.84728        0.12963
H          4.86332       -8.96088        0.52243
C          3.21089       -9.89230       -0.51013
H          3.30965       -8.26766        3.87896
H          3.48173      -10.92585       -0.20333
H          2.10494       -9.81503       -0.58483
H          3.64476       -9.70008       -1.51472
C          4.03810       -1.13126       -0.18389
C          5.35171       -0.81164       -0.44900
C          5.46881        0.53778       -0.22370
C          4.21879        0.98451        0.18063
N          3.32975       -0.04360        0.19813
C          3.97112        2.42226        0.56409
N          3.56465        2.66093        1.96147
C          4.45467        2.12032        3.05754
H          6.13818       -1.48525       -0.76411
H          3.61369       -2.11897       -0.26466
H          6.37688        1.12134       -0.31794
H          4.90205        2.99375        0.37971
H          3.20324        2.84060       -0.11097
C          5.85796        2.77159        3.01715
C          3.80317        2.46959        4.40712
C          4.64120        0.57638        3.07222
H          5.79977        3.87434        3.10937
H          6.48241        2.40454        3.86223
H          6.39478        2.51660        2.08027
H          2.81451        1.97158        4.50088
H          4.43679        2.11269        5.25203
H          3.67090        3.56287        4.51848
H          3.66977        0.04059        3.06073
H          5.29279        0.20316        2.26888
H          5.19353        0.26473        3.98747
