110
speciation2479.ct
Na         1.77753       -2.17453        1.12076
Mg         8.32090       -3.22307        0.55467
C          2.10524       -5.04821        0.25566
C          0.37038       -4.80509        1.90405
O          1.58535       -4.30108        1.35736
C          1.10072       -5.68510       -0.73366
C          0.60745       -6.06237        2.74788
H          2.72062       -4.33966       -0.32805
H          2.79138       -5.83390        0.63624
H         -0.05353       -4.03144        2.57879
H         -0.41296       -4.97918        1.13667
H          1.29950       -5.83481        3.58530
H         -0.35473       -6.42220        3.16820
H          1.04176       -6.87851        2.13345
H          0.36271       -4.96078       -1.12279
H          1.65578       -6.08768       -1.60646
H          0.55232       -6.52987       -0.26766
H         10.52321       -4.80653        0.81403
C          9.52979       -5.57015       -0.98596
C          9.50225       -4.87722        0.38198
C         10.09808       -4.64440       -2.06364
H         10.15430       -6.48895       -0.89612
H          8.50102       -5.87686       -1.27270
H          9.44485       -3.74934       -2.16474
H         11.11323       -4.32224       -1.75482
C         10.19980       -5.33015       -3.42911
H          8.89404       -5.50754        1.06494
H         10.77397       -6.27849       -3.35431
H         10.73302       -4.65625       -4.13350
H          9.19321       -5.54641       -3.84811
C          1.99780       -0.38974        3.76893
C          1.98164        0.96086        4.05567
C          1.82122        1.63487        2.84934
C          1.74848        0.65709        1.87970
N          1.85032       -0.56830        2.43322
C          1.57442        0.85889        0.41357
N          1.44100       -0.44050       -0.29363
C          0.00378       -0.82688       -0.50950
H          2.06953        1.42164        5.02412
H          2.11966       -1.19607        4.47866
H          1.75644        2.70517        2.70328
H          2.46695        1.40546        0.02783
H          0.72459        1.52352        0.24766
C         -0.80287        0.14096       -1.40749
C          0.01835       -2.22422       -1.15207
C         -0.80121       -0.95808        0.81364
H         -0.30691        0.34069       -2.34922
H         -1.80333       -0.28310       -1.63043
H         -0.99809        1.12265       -0.91967
H          0.46994       -2.92256       -0.43894
H         -0.99826       -2.57242       -1.38353
H          0.63551       -2.25967       -2.05558
H         -0.32961       -1.65093        1.53576
H         -0.93208        0.03026        1.30991
H         -1.82043       -1.35330        0.61215
Na         3.11888       -0.31432       -2.02029
Mg         6.77072       -0.35363       -2.69963
C          2.98504        2.56447       -3.58680
C          1.35402        1.07017       -4.36560
O          2.52557        1.21402       -3.57527
C          1.99561        3.56821       -2.96809
C          1.01542       -0.39789       -4.51851
H          3.92501        2.60246       -3.00478
H          3.25542        2.88819       -4.62011
H          0.50011        1.58292       -3.88280
H          1.48500        1.48088       -5.39462
H          1.01654       -0.85172       -3.52541
H          0.01282       -0.51582       -4.97971
H          1.76674       -0.92494       -5.13104
H          1.65717        3.21341       -1.97478
H          2.48240        4.56071       -2.85495
H          1.10909        3.72389       -3.62444
H          7.98956        1.89710       -2.77794
C          8.75121        1.00707       -4.57370
C          8.32928        0.89514       -3.11566
C          9.20622       -0.33504       -5.14386
H          7.88990        1.38743       -5.16451
H          9.58308        1.74282       -4.64090
H         10.05851       -0.73047       -4.54941
H          8.36716       -1.06153       -5.09842
C          9.64991       -0.16964       -6.59582
H          9.18217        0.58348       -2.47597
H          8.81278        0.22134       -7.21331
H         10.50468        0.53843       -6.65734
H          9.96990       -1.14941       -7.00674
C          7.09835       -0.72072        1.73297
C          5.92356        0.00616        1.64128
C          5.25154       -0.46472        0.53582
C          6.03886       -1.45933        0.00218
N          7.16851       -1.60947        0.72311
C          5.64336       -2.35878       -1.11862
N          5.25037       -1.57179       -2.29379
C          4.86764       -2.38640       -3.48254
H          5.55628        0.74560        2.34040
H          7.80444       -0.66754        2.55009
H          4.27154       -0.16968        0.19412
H          4.79378       -2.97746       -0.77059
H          6.51164       -3.01138       -1.34477
C          3.57481       -3.18529       -3.20203
C          4.59875       -1.40392       -4.62993
C          5.96257       -3.36888       -3.95499
H          2.76891       -2.51211       -2.85592
H          3.22343       -3.70766       -4.11794
H          3.73879       -3.96830       -2.43521
H          5.52071       -0.84545       -4.89530
H          4.22649       -1.93086       -5.53608
H          3.84399       -0.66617       -4.32144
H          6.90287       -2.83484       -4.19819
H          6.16843       -4.15730       -3.20365
H          5.61738       -3.89564       -4.87447
