83
speciation330.ct
Na        -0.33649       -6.14420       -1.53769
Mg        -3.94530       -1.12089       -1.06629
C         -1.31729       -5.21423       -4.46844
C         -2.31290       -7.19753       -3.87057
O         -1.26047       -6.29407       -3.54701
C         -0.09462       -4.32558       -4.36676
C         -2.19977       -8.49929       -3.10299
H         -1.29207       -5.59863       -5.51837
H         -2.23723       -4.59915       -4.32440
H         -3.31031       -6.74118       -3.67206
H         -2.25054       -7.49944       -4.94454
H         -2.30857       -8.31594       -2.01723
H         -3.00358       -9.18953       -3.44334
H         -1.22944       -8.98443       -3.31456
H          0.82508       -4.93399       -4.49003
H         -0.13199       -3.56487       -5.17806
H         -0.07985       -3.81047       -3.39030
C         -1.26230       -4.81492        1.56004
C         -1.74668       -3.73107        2.27740
C         -1.90619       -2.71997        1.38689
C         -1.51193       -3.22454        0.14657
N         -1.11187       -4.53500        0.23149
C         -1.60113       -2.41942       -1.10710
N         -2.13907       -1.07165       -0.84581
C         -1.39444        0.19786       -0.85454
H         -1.99056       -3.65638        3.33717
H         -1.05147       -5.77188        2.01259
H         -2.30740       -1.73856        1.60931
H         -0.66326       -2.41326       -1.66976
H         -2.36175       -2.95238       -1.73078
C         -0.19052        0.15578       -1.80299
C         -2.34144        1.33823       -1.31631
C         -0.97101        0.48977        0.58433
H         -0.53337       -0.03716       -2.84472
H          0.35029        1.12378       -1.78126
H          0.52677       -0.63202       -1.50123
H         -3.25860        1.38688       -0.68969
H         -1.83185        2.32503       -1.25295
H         -2.65937        1.20548       -2.37232
H         -1.87610        0.54577        1.23191
H         -0.31671       -0.32317        0.95874
H         -0.43854        1.45932        0.65401
Na        -3.56669       -0.95346       -2.20650
C          2.05106       -7.93334       -0.55596
C          1.69442       -8.60687       -2.79647
O          1.10424       -7.99744       -1.62084
C          3.35842       -7.19796       -0.90340
C          2.24144      -10.05783       -2.60876
H          1.56129       -7.38485        0.27023
H          2.26443       -8.94307       -0.13887
H          0.93961       -8.67401       -3.60089
H          2.50558       -7.97561       -3.21549
H          1.43376      -10.78252       -2.36302
H          2.72216      -10.40620       -3.54906
H          3.03647      -10.13787       -1.83682
H          3.12666       -6.21249       -1.35581
H          3.96370       -7.05086        0.01402
H          3.99140       -7.78453       -1.60592
C         -3.61912        0.14115       -5.21491
C         -4.61641       -0.02908       -6.17056
C         -5.60728       -0.76620       -5.55922
C         -5.20685       -1.02196       -4.27254
N         -3.99604       -0.47949       -4.06376
C         -5.98239       -1.83626       -3.22489
N         -5.46134       -1.84844       -1.82202
C         -5.86921       -2.98393       -0.92137
H         -4.58514        0.35235       -7.18626
H         -2.68181        0.66931       -5.36017
H         -6.53687       -1.09029       -6.03481
H         -7.01665       -1.44322       -3.18959
H         -5.98599       -2.84179       -3.66583
C         -5.65921       -4.37890       -1.56541
C         -5.06824       -3.04839        0.41061
C         -7.32060       -2.73188       -0.50545
H         -4.57480       -4.54298       -1.77045
H         -5.98496       -5.18034       -0.86551
H         -6.22776       -4.53840       -2.49401
H         -5.04570       -2.09778        0.98106
H         -5.51586       -3.81819        1.08930
H         -4.04843       -3.41559        0.23882
H         -7.36186       -1.77938        0.07351
H         -7.97824       -2.63711       -1.38666
H         -7.69617       -3.54519        0.15124
