110
speciation2424.ct
Na         2.39977        0.04795        1.55121
Mg         3.04287        1.49171       -1.51434
C          4.74836       -0.11377        3.62222
C          2.66683        0.12356        4.77667
O          3.36083        0.22561        3.53533
C          5.05845       -1.44071        4.35224
C          3.15255        1.13292        5.82973
H          5.11674       -0.20858        2.57901
H          5.32643        0.71613        4.06778
H          1.59482        0.33318        4.59499
H          2.68657       -0.90999        5.17801
H          3.02299        2.17151        5.46377
H          2.56656        1.00963        6.76619
H          4.21970        0.97072        6.08874
H          4.86380       -1.37182        5.44197
H          6.13625       -1.68717        4.22514
H          4.44331       -2.27575        3.97909
H          3.25194        0.75450       -4.32505
C          1.23522        1.07469       -3.88424
C          2.57974        0.46974       -3.50245
C          0.44884        0.58061       -5.11673
H          0.59815        1.31265       -3.04482
H          1.47744        2.10854       -4.10118
H         -0.55712        1.05471       -5.05789
H          0.98224        0.98609       -5.99312
C          0.22357       -0.91527       -5.38428
H          2.57874       -0.64636       -3.50506
H          1.18285       -1.44622       -5.55881
H         -0.35901       -1.42136       -4.58869
H         -0.36597       -0.99420       -6.33205
C         -2.24089       -1.35163        0.11956
C         -3.16735       -0.34957        0.21459
C         -2.46298        0.83817        0.12029
C         -1.11429        0.51708       -0.02931
N         -1.02224       -0.81418       -0.01298
C          0.00385        1.55962       -0.31218
N          1.44802        1.64256        0.20824
C          1.54580        2.86670        1.10054
H         -4.23514       -0.47414        0.32792
H         -2.43545       -2.41996        0.14593
H         -2.89636        1.82741        0.13452
H         -0.06307        1.92343       -1.32077
H         -0.57446        2.41056        0.04901
C          0.68300        2.68936        2.37864
C          3.00105        3.07443        1.56383
C          1.13512        4.20242        0.38164
H          1.04109        1.83398        2.98389
H          0.71798        3.59525        3.01902
H         -0.39773        2.50228        2.17836
H          3.66529        3.26539        0.70543
H          3.04563        3.95655        2.24934
H          3.36605        2.20385        2.12853
H          1.77766        4.39266       -0.49702
H          0.08469        4.28587        0.03984
H          1.22956        5.05382        1.08830
Na         0.57554       -1.61616       -0.12596
Mg         3.53530       -5.51678       -1.14491
C          1.15551       -7.56799       -0.86402
C          2.75960       -7.83917        0.78178
O          2.51975       -7.31382       -0.53731
C          0.73157       -6.93297       -2.16156
C          2.58422       -9.39051        0.90016
H          0.44559       -7.23929       -0.06057
H          1.02339       -8.65702       -1.05540
H          3.79333       -7.60457        1.08410
H          2.08266       -7.37317        1.54056
H          3.26419       -9.92238        0.19667
H          2.82546       -9.72681        1.94168
H          1.56598       -9.71925        0.73191
H          1.42562       -7.24380       -2.96660
H         -0.29188       -7.28632       -2.41425
H          0.71417       -5.82618       -2.05808
H          5.87988        2.72993       -2.24879
C          5.80052        1.10241       -3.72832
C          5.50148        1.68683       -2.29835
C          7.28459        1.04357       -4.22629
H          5.43609        0.05232       -3.74015
H          5.22246        1.70573       -4.44333
H          7.75739        2.04780       -4.20422
H          7.86340        0.36482       -3.56648
C          7.44522        0.49288       -5.67211
H          6.18443        1.16064       -1.58339
H          6.88038       -0.45289       -5.82689
H          8.51635        0.26493       -5.87600
H          7.14709        1.23028       -6.45236
C          5.78054       -3.28694       -1.78235
C          6.07130       -1.89482       -1.72481
C          4.92536       -1.27859       -1.43827
C          3.95209       -2.24491       -1.35678
N          4.47375       -3.47749       -1.50540
C          2.59077       -1.83421       -1.02723
N          2.34890       -1.82537        0.39828
C          2.43916       -3.07270        1.14840
H          7.05251       -1.39692       -1.85407
H          6.52712       -4.02808       -1.94167
H          4.68426       -0.25958       -1.23218
H          1.86291       -2.41142       -1.64508
H          2.40606       -0.77837       -1.31836
C          3.90918       -3.33625        1.51902
C          1.64635       -2.85810        2.43195
C          1.77453       -4.22017        0.35906
H          4.34985       -2.39421        1.87966
H          3.99343       -4.14093        2.27302
H          4.57576       -3.64585        0.72495
H          0.58598       -2.61504        2.20029
H          1.67680       -3.77383        3.05787
H          2.07202       -2.01688        3.00637
H          0.69048       -4.01707        0.20375
H          2.18901       -4.33504       -0.64991
H          1.89425       -5.17122        0.90167
