96
speciation1325.ct
Na         2.36266       -2.20515        0.86438
Mg         3.27443        0.01268       -1.53986
C          1.57431       -4.97860        0.39163
C          3.81211       -4.87466        1.24294
O          2.78775       -4.25020        0.46245
C          1.05340       -5.50401        1.73037
C          4.46197       -6.04491        0.51379
H          0.80878       -4.27546        0.00723
H          1.64685       -5.78784       -0.36399
H          4.63172       -4.15627        1.43302
H          3.47913       -5.16211        2.25446
H          4.95141       -5.66591       -0.38638
H          5.25776       -6.49792        1.13940
H          3.72284       -6.82476        0.23938
H          1.04908       -4.68209        2.47775
H          0.02501       -5.89431        1.60264
H          1.68179       -6.34600        2.09001
H          3.94108        1.67741       -3.62700
C          2.96514        3.06120       -2.36424
C          3.07186        1.66054       -2.95548
C          4.27886        3.42180       -1.66909
H          2.78461        3.78630       -3.19077
H          2.11052        3.11165       -1.65593
H          4.46085        2.70798       -0.84042
H          5.11569        3.34792       -2.40026
C          4.25663        4.84184       -1.12006
H          2.20115        1.47171       -3.61698
H          4.11739        5.57292       -1.94576
H          3.43639        4.95707       -0.38175
H          5.22576        5.05346       -0.62085
C          2.50739       -1.10732        3.80325
C          2.33053        0.11318        4.42420
C          1.99503        1.01845        3.43883
C          1.98720        0.31089        2.25842
N          2.29049       -0.97650        2.48750
C          1.69308        0.82764        0.87931
N          1.82850       -0.25890       -0.12215
C          0.60957       -0.66657       -0.83825
H          2.44307        0.31576        5.47986
H          2.78948       -2.03567        4.27674
H          1.78369        2.07233        3.56593
H          2.42160        1.63017        0.63605
H          0.68127        1.28350        0.89084
C         -0.06109        0.50066       -1.60039
C          1.05538       -1.72554       -1.85705
C         -0.41568       -1.27829        0.13603
H          0.65748        1.00540       -2.25067
H         -0.88991        0.12807       -2.23807
H         -0.48637        1.26733       -0.92397
H          1.58066       -2.55900       -1.34685
H          0.19798       -2.14306       -2.42258
H          1.77577       -1.28538       -2.57923
H          0.03970       -2.09329        0.73435
H         -0.79833       -0.51031        0.84289
H         -1.28379       -1.68975       -0.41941
Mg         4.20135       -3.20112       -2.20774
C          4.85061       -5.67389       -2.94511
C          2.56499       -5.21253       -3.38879
O          3.64845       -5.04037       -2.48178
C          5.27843       -5.41451       -4.39831
C          2.08445       -6.67485       -3.46332
H          5.69045       -5.27343       -2.34746
H          4.82237       -6.76243       -2.72696
H          1.70722       -4.59831       -3.04804
H          2.81366       -4.83469       -4.40008
H          1.63533       -6.99072       -2.49911
H          1.31949       -6.77732       -4.26135
H          2.90564       -7.37716       -3.71603
H          5.36946       -4.32419       -4.58463
H          6.27090       -5.88606       -4.56726
H          4.58294       -5.87529       -5.12858
C          4.23065        0.33062       -6.29353
C          3.35997       -0.72692       -6.11558
C          3.72591       -1.38777       -4.94729
C          4.76611       -0.75190       -4.41910
N          5.14260        0.35054       -5.23216
C          5.54903       -1.11663       -3.18189
N          4.76849       -1.31448       -1.92665
C          5.68109       -1.37330       -0.73534
H          2.55146       -0.97114       -6.79873
H          4.22591        1.03752       -7.11694
H          3.24023       -2.26827       -4.54817
H          6.30134       -0.31710       -3.07869
H          6.07241       -2.06414       -3.42219
C          6.47707       -0.07148       -0.47819
C          4.81532       -1.57912        0.47184
C          6.65650       -2.57412       -0.81555
H          5.79034        0.79448       -0.38885
H          7.04008       -0.16008        0.47897
H          7.23777        0.13772       -1.25189
H          4.25030       -2.46827        0.22301
H          5.39452       -1.74317        1.40643
H          4.15065       -0.71040        0.61808
H          6.09409       -3.52200       -0.92855
H          7.37368       -2.47635       -1.65360
H          7.25532       -2.65229        0.11879
