80
speciation880.ct
Na         1.32823       -0.39409        0.10507
Mg         4.89328        2.82637       -2.87690
H          2.67854        3.92293       -3.90858
C          2.77425        5.11389       -2.08098
C          2.98156        3.79699       -2.84980
C          3.64490        6.25526       -2.61072
H          1.70275        5.40403       -2.17188
H          2.99594        4.95260       -1.00227
H          4.71503        5.99048       -2.47735
H          3.43986        6.41112       -3.69142
C          3.35454        7.56523       -1.87022
H          2.29148        3.05815       -2.39492
H          2.29770        7.87612       -2.02361
H          3.54132        7.45448       -0.78041
H          4.01308        8.37021       -2.26019
C          6.86164        2.70795       -0.81444
C          7.11074        2.50252        0.51921
C          5.93098        2.05872        1.06548
C          5.02531        1.92006        0.02900
N          5.58082        2.40474       -1.10671
C          3.60180        1.42076        0.15604
N          3.43793       -0.05489        0.04872
C          3.98928       -0.94506        1.13021
H          8.04082        2.68309        1.04182
H          7.57136        3.09388       -1.53274
H          5.76480        1.84813        2.11545
H          3.04165        1.84259       -0.69387
H          3.11681        1.83433        1.06446
C          3.41889       -0.58456        2.51646
C          3.58097       -2.38905        0.78425
C          5.53349       -0.99776        1.21588
H          2.31586       -0.70203        2.53194
H          3.85320       -1.24443        3.30022
H          3.67300        0.45852        2.79617
H          4.02299       -2.68875       -0.19141
H          3.95860       -3.09999        1.55577
H          2.48120       -2.49856        0.72833
H          5.97225       -1.09928        0.21365
H          6.00082       -0.17973        1.74633
H          5.86968       -1.84838        1.84894
Na         6.66872       -0.73598       -3.87070
Mg         4.10125       -0.79239       -1.67645
H          5.79874        3.63932       -5.27948
C          7.27390        2.11034       -4.85387
C          6.32134        3.22379       -4.39953
C          6.55714        0.99177       -5.61661
H          8.06842        2.52293       -5.51136
H          7.76686        1.67893       -3.95244
H          7.29293        0.18112       -5.82756
H          5.74689        0.62545       -4.98288
C          5.91546        1.38730       -6.93463
H          6.92064        4.03698       -3.94062
H          5.09411        2.11058       -6.76493
H          6.67509        1.80614       -7.62259
H          5.47111        0.47947       -7.39780
C          8.24455       -1.97988       -0.81155
C          7.86690       -3.22494       -0.34412
C          6.78903       -3.63853       -1.10790
C          6.50563       -2.68627       -2.00914
N          7.41258       -1.60850       -1.87054
C          5.43729       -2.81360       -3.07748
N          4.76458       -1.52988       -3.40161
C          3.64614       -1.64711       -4.38642
H          8.34238       -3.76327        0.46263
H          9.05927       -1.38135       -0.42006
H          6.27987       -4.58841       -1.01617
H          4.72433       -3.59434       -2.74583
H          5.95863       -3.18286       -3.98298
C          2.52818       -2.58178       -3.86498
C          2.99865       -0.25897       -4.58335
C          4.14186       -2.16488       -5.75501
H          2.15978       -2.23424       -2.87610
H          1.67153       -2.59394       -4.57439
H          2.86077       -3.63432       -3.77806
H          3.68266        0.48027       -5.02293
H          2.13577       -0.32725       -5.28197
H          2.63335        0.14326       -3.61485
H          4.93743       -1.50809       -6.15940
H          4.53979       -3.19784       -5.68503
H          3.30506       -2.19365       -6.48678
