83
speciation575.ct
Na         0.27868        1.35990       -0.23555
Mg        -0.29625        3.38573        1.73254
C          2.00898        3.14558       -1.87943
C          0.53887        4.47586       -0.56518
O          0.83287        3.19740       -1.09771
C          3.29129        3.48325       -1.12546
C          0.29300        5.53392       -1.64323
H          2.08922        2.11579       -2.22310
H          1.90846        3.71434       -2.83098
H         -0.41860        4.39668       -0.01187
H          1.31537        4.79990        0.15628
H         -0.52712        5.20215       -2.32753
H          0.00587        6.49179       -1.17313
H          1.20884        5.72457       -2.24827
H          3.36302        2.87370       -0.20131
H          4.16793        3.26286       -1.77165
H          3.32403        4.56293       -0.87236
C         -3.06754        4.39760        1.97443
C         -4.38239        3.97402        2.02323
C         -4.35423        2.60268        1.89148
C         -3.02344        2.24894        1.74146
N         -2.24200        3.34316        1.81500
C         -2.50651        0.84765        1.52774
N         -1.76199        0.64228        0.23940
C         -2.57305        0.77105       -1.00862
H         -5.26061        4.59736        2.14083
H         -2.73498        5.42512        2.05332
H         -5.20857        1.93709        1.88736
H         -3.33401        0.12079        1.61791
H         -1.88424        0.64708        2.40115
C         -3.09527        2.20340       -1.24499
C         -1.65139        0.44837       -2.19169
C         -3.74159       -0.23522       -1.03750
H         -2.26681        2.93997       -1.16986
H         -3.55160        2.28687       -2.25300
H         -3.90701        2.48259       -0.56264
H         -1.24375       -0.57567       -2.09822
H         -2.20719        0.50197       -3.15254
H         -0.81175        1.17262       -2.24526
H         -3.34903       -1.27020       -1.00964
H         -4.45144       -0.08727       -0.20062
H         -4.32772       -0.12183       -1.97277
Na        -0.52191       -1.25318       -0.06787
C         -1.87292       -4.12322        0.39790
C         -0.33781       -4.09620       -1.32163
O         -1.09952       -3.28507       -0.44173
C         -2.80105       -3.31623        1.28503
C          0.43450       -3.24177       -2.29643
H         -2.53679       -4.76522       -0.22881
H         -1.22483       -4.75950        1.04296
H          0.39249       -4.72723       -0.76392
H         -1.01162       -4.72930       -1.94272
H          1.17739       -2.66563       -1.72453
H          0.97299       -3.87934       -3.02889
H         -0.25677       -2.57223       -2.84950
H         -3.45245       -2.66763        0.67321
H         -3.45536       -4.01358        1.85096
H         -2.21695       -2.70140        1.99826
C          1.70717       -0.03766       -3.91696
C          3.06112        0.20991       -3.95036
C          3.54696        0.00730       -2.67019
C          2.52419       -0.33972       -1.87886
N          1.32215       -0.38223       -2.61095
C          2.66746       -0.68462       -0.41898
N          1.47181       -0.39445        0.41686
C          1.70555       -0.64556        1.87169
H          3.62926        0.50312       -4.82390
H          1.03377        0.02553       -4.76089
H          4.57998        0.11146       -2.36281
H          3.53984       -0.10427       -0.06129
H          2.93815       -1.75640       -0.37262
C          2.81623        0.25194        2.46110
C          0.42452       -0.31481        2.61506
C          2.02485       -2.13646        2.14778
H          2.58465        1.32567        2.28013
H          2.89006        0.09747        3.56183
H          3.81684        0.02343        2.05099
H         -0.40075       -0.95132        2.23808
H          0.52007       -0.49759        3.70756
H          0.21283        0.76555        2.46265
H          1.20679       -2.78849        1.77431
H          2.97781       -2.45508        1.68106
H          2.13797       -2.31132        3.24031
