96
speciation1332.ct
Na         3.96719        3.10295        3.60737
Mg         5.07325        3.30816       -3.23655
C          6.03029        4.79191        4.80045
C          6.10529        2.61846        5.67643
O          5.27649        3.64005        5.14098
C          7.01852        4.56862        3.64905
C          5.26572        1.42544        6.10827
H          5.30541        5.57063        4.48496
H          6.55069        5.20690        5.69296
H          6.84092        2.24447        4.93473
H          6.63078        2.99154        6.58495
H          4.76327        0.97470        5.22758
H          5.92720        0.65940        6.56985
H          4.50503        1.73521        6.85418
H          6.49497        4.13266        2.77284
H          7.47063        5.53953        3.35740
H          7.85362        3.90349        3.95182
H          8.27895        2.85692       -4.26178
C          7.86993        2.16979       -6.15937
C          7.42262        2.27398       -4.63854
C          9.27577        1.60944       -6.52377
H          7.18256        1.49096       -6.68779
H          7.84225        3.19454       -6.59290
H         10.08505        2.18273       -6.02418
H          9.35032        0.54303       -6.22156
C          9.52818        1.69233       -8.05244
H          7.54043        1.24788       -4.22900
H          8.74218        1.15357       -8.62685
H          9.54356        2.74963       -8.39878
H         10.50895        1.24154       -8.32477
C          1.26606        1.77835        2.67135
C          0.61668        1.15365        1.62741
C          1.49184        1.21747        0.54983
C          2.61687        1.91877        0.96325
N          2.48816        2.22482        2.27988
C          3.82090        2.31418        0.09820
N          3.54167        3.04157       -1.22722
C          2.67040        4.27211       -0.95733
H         -0.35106        0.69116        1.65503
H          0.85753        1.89756        3.67758
H          1.29356        0.82348       -0.42514
H          4.53759        2.90446        0.70835
H          4.28491        1.35461       -0.06746
C          3.33538        5.29342        0.00377
C          2.45340        4.94077       -2.25234
C          1.21277        4.02482       -0.44427
H          4.31272        5.61816       -0.37710
H          2.71607        6.20850        0.08099
H          3.44694        4.88128        1.02565
H          1.96698        4.18483       -2.88539
H          1.83914        5.85865       -2.20404
H          3.43999        5.24296       -2.52875
H          0.67636        3.27880       -1.06882
H          1.13539        3.78566        0.62445
H          0.62444        4.96653       -0.48720
Mg         4.47523        2.66841       -2.94406
C          6.69787        1.42491       -1.23163
C          7.25515        3.56808       -2.09193
O          6.36599        2.45219       -2.13445
C          5.92190        0.15527       -1.60516
C          7.18209        4.44119       -0.86772
H          7.77542        1.16107       -1.30278
H          6.47630        1.74955       -0.19464
H          8.31325        3.25471       -2.22123
H          6.99634        4.21288       -2.95839
H          7.61759        3.92397        0.00752
H          7.76968        5.36579       -1.07114
H          6.14397        4.71438       -0.67908
H          6.23438       -0.21504       -2.59697
H          6.10139       -0.62548       -0.83559
H          4.83131        0.31894       -1.70108
C          5.40495        6.29038       -4.11889
C          4.67713        7.23103       -4.82797
C          3.59926        6.57032       -5.37961
C          3.72456        5.25538       -4.98856
N          4.81241        5.08248       -4.21737
C          2.77749        4.14648       -5.30405
N          3.36509        2.84287       -4.88044
C          4.05813        2.17280       -6.01398
H          4.88371        8.29022       -4.90402
H          6.27554        6.49571       -3.51544
H          2.80331        7.00021       -5.97438
H          2.56444        4.19021       -6.38199
H          1.77107        4.31192       -4.88525
C          5.10765        3.12558       -6.62501
C          4.65875        0.87380       -5.45273
C          3.12519        1.76135       -7.18396
H          5.75922        3.51854       -5.84242
H          5.64712        2.65463       -7.46465
H          4.66502        4.02574       -7.08904
H          3.84498        0.18998       -5.12945
H          5.26780        0.34281       -6.21392
H          5.26025        1.06840       -4.55163
H          2.30177        1.10956       -6.83672
H          2.69716        2.61934       -7.73620
H          3.71968        1.20550       -7.94532
