96
speciation1324.ct
Na         1.17124       -2.28602       -0.01274
Mg         3.63505       -0.27755       -1.88948
C         -1.43367       -3.89463       -0.70212
C          0.25519       -3.57190       -2.34229
O         -0.35379       -3.09551       -1.17634
C         -1.17334       -5.40792       -0.63448
C         -0.63772       -3.34371       -3.56288
H         -1.67142       -3.53968        0.31853
H         -2.34960       -3.69664       -1.30442
H          1.17660       -2.96658       -2.43005
H          0.60147       -4.62323       -2.25827
H         -0.84707       -2.25922       -3.67119
H         -0.15881       -3.71799       -4.48465
H         -1.58586       -3.90387       -3.46364
H         -0.20280       -5.60998       -0.13777
H         -1.98622       -5.89867       -0.05963
H         -1.17545       -5.85861       -1.65215
H          4.64681        1.60619       -4.17285
C          2.86594        2.50940       -4.16028
C          3.61126        1.21919       -3.96951
C          3.26182        3.43181       -3.02744
H          3.13315        2.98569       -5.14077
H          1.78559        2.28241       -4.15412
H          3.06727        2.87994       -2.11215
H          4.34829        3.67987       -3.03450
C          2.43557        4.69403       -3.05710
H          3.38890        0.57188       -4.85021
H          2.74186        5.31488       -3.92390
H          1.35520        4.42674       -3.15850
H          2.57821        5.25110       -2.11416
C          2.67466       -3.80127        2.37167
C          3.68688       -3.46193        3.25295
C          4.03904       -2.16330        2.95879
C          3.24719       -1.76765        1.88591
N          2.42856       -2.77691        1.53880
C          3.25623       -0.43199        1.19024
N          2.41116       -0.41919       -0.03598
C          1.21552        0.48240        0.03274
H          4.10249       -4.08970        4.03257
H          2.15930       -4.75233        2.34146
H          4.80362       -1.57734        3.46140
H          4.29566       -0.18789        0.90043
H          2.96247        0.31925        1.95419
C          1.55073        1.95943        0.34516
C          0.55837        0.40930       -1.35087
C          0.18795        0.03028        1.11261
H          2.26367        2.36174       -0.36223
H          0.62644        2.58011        0.29866
H          1.97773        2.11535        1.35380
H          0.31402       -0.64125       -1.60308
H         -0.37205        1.01242       -1.39761
H          1.27048        0.78346       -2.11607
H         -0.17113       -1.00645        0.98657
H          0.60397        0.12679        2.13851
H         -0.72059        0.67248        1.07126
Mg         4.52614       -2.38457       -6.39751
C          2.01002       -3.42036       -6.34944
C          2.51195       -3.31340       -8.59294
O          2.84850       -2.84321       -7.29872
C          2.48960       -2.92378       -5.01018
C          3.49010       -2.78160       -9.61659
H          0.95426       -3.08446       -6.49461
H          2.07117       -4.53406       -6.36012
H          2.47857       -4.42728       -8.66665
H          1.51359       -2.89759       -8.86232
H          4.47350       -3.27560       -9.49128
H          3.10356       -2.98654      -10.64164
H          3.59523       -1.68472       -9.48525
H          2.30936       -1.82901       -4.93509
H          1.96977       -3.47756       -4.24371
H          3.55810       -3.15236       -4.84477
C          7.38299       -2.16916       -6.21800
C          8.52486       -1.71537       -5.58492
C          8.11538       -1.11301       -4.42743
C          6.75285       -1.26827       -4.37801
N          6.27211       -1.88221       -5.49514
C          5.96483       -0.75725       -3.23752
N          5.11062       -1.70068       -2.52054
C          5.89799       -2.68300       -1.69607
H          9.53672       -1.79425       -5.92806
H          7.35175       -2.68206       -7.16634
H          8.73221       -0.63312       -3.67650
H          5.33848       -0.16489       -3.76062
H          6.53350       -0.11201       -2.53466
C          6.80617       -1.95027       -0.67799
C          4.94911       -3.62014       -0.92723
C          6.75942       -3.62680       -2.58919
H          6.22106       -1.17620       -0.14104
H          7.24008       -2.65247        0.06062
H          7.65482       -1.44623       -1.18939
H          4.18914       -4.06551       -1.60351
H          5.53534       -4.46637       -0.48981
H          4.46276       -3.11242       -0.08111
H          6.11771       -4.11175       -3.36120
H          7.59389       -3.12357       -3.08240
H          7.26700       -4.40304       -1.99142
