110
speciation2187.ct
Na         1.32601        1.36913        1.60734
Mg         1.90024        1.99672       -5.79528
C          1.12356        4.56444        1.59336
C          3.17198        3.69929        2.31176
O          1.77618        3.44023        2.20424
C          1.67340        4.98134        0.22074
C          3.83638        2.59686        3.11378
H          0.05670        4.29428        1.47923
H          1.13750        5.44858        2.27372
H          3.66999        3.72874        1.31589
H          3.35387        4.65521        2.85535
H          3.69938        1.62839        2.59459
H          4.92454        2.81142        3.19637
H          3.39511        2.55102        4.12857
H          1.84936        4.07808       -0.37697
H          0.95611        5.65580       -0.29713
H          2.63843        5.52548        0.30928
H          4.27669        3.28778       -6.52262
C          4.82937        2.99805       -4.47340
C          3.75387        3.24480       -5.54525
C          5.55712        1.66887       -4.69088
H          5.58528        3.81999       -4.51475
H          4.35621        3.02113       -3.46895
H          4.82025        0.85060       -4.68930
H          6.07112        1.67170       -5.67688
C          6.58400        1.39268       -3.59265
H          3.33739        4.25784       -5.35076
H          7.39271        2.15449       -3.60634
H          6.09653        1.39671       -2.59363
H          7.03715        0.39200       -3.75563
C          3.15459       -3.46443       -1.15096
C          3.70497       -4.15548       -0.08276
C          3.47809       -3.39807        1.03187
C          2.79167       -2.27291        0.59171
N          2.59341       -2.29869       -0.74788
C          2.30747       -1.21968        1.49606
N          0.87571       -0.88270        1.22815
C         -0.14888       -1.93057        1.58833
H          4.19645       -5.11963       -0.09907
H          3.14355       -3.82310       -2.16886
H          3.74965       -3.63686        2.05789
H          2.87842       -0.30359        1.23203
H          2.45859       -1.42705        2.55601
C         -0.21882       -2.14822        3.10899
C         -1.50748       -1.44158        1.05261
C          0.08476       -3.31556        0.92938
H         -0.39954       -1.18659        3.64544
H         -1.04065       -2.85566        3.34776
H          0.72023       -2.61686        3.47824
H         -1.45977       -1.36659       -0.07431
H         -2.30254       -2.16520        1.31152
H         -1.76558       -0.45674        1.46905
H          0.16170       -3.24613       -0.17765
H          0.96395       -3.85379        1.33103
H         -0.76634       -3.99596        1.14185
Na         3.02541        0.02557       -3.81422
Mg         1.51095       -0.94079       -1.90232
C         -0.66520        3.51871       -6.10589
C          0.74602        3.55245       -7.98115
O          0.66436        3.31410       -6.59256
C         -1.73684        2.59805       -6.71049
C          2.19943        3.56383       -8.40940
H         -0.65759        3.36682       -5.01506
H         -0.97438        4.58022       -6.24297
H          0.21650        2.76179       -8.55311
H          0.33184        4.55627       -8.23404
H          2.68031        2.59850       -8.16068
H          2.26780        3.72440       -9.50371
H          2.73313        4.38313       -7.88889
H         -1.44817        1.54419       -6.62692
H         -2.69831        2.73049       -6.16816
H         -1.92091        2.82913       -7.77910
H          1.59121        1.66565       -0.63529
C          0.55068        2.58802       -2.31022
C          1.47479        1.45552       -1.71866
C         -0.81144        2.76672       -1.60416
H          1.05940        3.57295       -2.26679
H          0.41146        2.39839       -3.37881
H         -1.32794        1.78767       -1.57864
H         -0.64570        3.08790       -0.55032
C         -1.74981        3.84695       -2.21625
H          2.47669        1.64244       -2.15636
H         -1.46080        4.76325       -1.72144
H         -1.49917        4.48569       -3.09301
H         -2.80862        3.72271       -1.88184
C          0.01157       -3.21600       -3.28161
C         -0.70498       -3.54917       -4.41527
C         -0.66282       -2.45384       -5.23341
C          0.12145       -1.51588       -4.58848
N          0.49818       -1.94614       -3.37994
C          0.46835       -0.19339       -5.17315
N          1.86894       -0.05889       -5.60022
C          2.28984       -0.82836       -6.83710
H         -1.21095       -4.47943       -4.63694
H          0.14461       -3.87927       -2.43692
H         -1.11267       -2.35482       -6.21268
H         -0.19444        0.00506       -6.01625
H          0.25088        0.55107       -4.39588
C          1.48007       -0.32582       -8.04731
C          3.78967       -0.61649       -7.08945
C          2.13702       -2.38785       -6.78992
H          1.51904        0.77258       -8.09193
H          1.85857       -0.75605       -8.99652
H          0.41742       -0.62561       -7.96657
H          4.38921       -1.09682       -6.28297
H          4.09983       -1.10706       -8.04041
H          4.05912        0.45240       -7.15066
H          2.69032       -2.84403       -5.94391
H          1.10559       -2.74385       -6.80187
H          2.54903       -2.84056       -7.72262
