110
speciation2489.ct
Na         1.16888       -0.82115       -0.13936
Mg         2.68050        1.38922        2.67558
C         -0.93589       -2.37588        1.21854
C          0.95709       -2.73364        2.41400
O          0.27878       -1.80199        1.60357
C         -2.12737       -2.10401        2.09385
C          1.22180       -4.07961        1.70817
H         -1.33418       -1.80988        0.39849
H         -0.88668       -2.56479        0.18518
H          1.88265       -2.24500        2.80210
H          0.38234       -2.90361        3.35053
H          1.82658       -4.02055        0.79014
H          1.72327       -4.78000        2.39408
H          0.28551       -4.52581        1.34000
H         -2.42509       -1.08049        1.99510
H         -3.01884       -2.60285        1.68737
H         -1.92574       -2.37418        3.14760
H          3.64351        3.92923        2.72285
C          1.53299        4.43837        3.09596
C          2.63128        3.49330        2.60115
C          1.62014        4.85878        4.57759
H          1.59866        5.36768        2.48461
H          0.54321        3.95353        2.93592
H          1.50710        3.98413        5.26826
H          2.60402        5.33720        4.79129
C          0.51483        5.88159        4.88649
H          2.42002        3.34316        1.53740
H          0.63205        6.76876        4.22831
H         -0.48445        5.43423        4.70220
H          0.56275        6.22404        5.94213
C          0.62968        1.15186        3.64195
C         -0.63971        1.02160        3.84214
C         -1.14827        0.78399        2.55226
C         -0.07937        0.65929        1.51558
N          1.05265        1.01937        2.35654
C         -0.32326        0.16806       -0.37878
N         -0.25238       -0.69575       -1.99733
C         -0.40098       -2.13799       -2.47715
H         -1.04322        1.13211        4.88074
H          1.33737        1.38693        4.49924
H         -2.21294        0.73656        2.64233
H         -1.39712        0.15727       -0.16686
H         -0.19150        1.21411       -0.71080
C         -1.73905       -2.90174       -2.23008
C         -0.17999       -2.21240       -4.03396
C          0.71524       -2.91362       -1.92817
H         -2.54521       -2.50434       -2.86878
H         -1.58499       -3.97127       -2.51471
H         -2.17421       -2.97814       -1.23241
H          0.76722       -1.70869       -4.34443
H         -0.05970       -3.28213       -4.34653
H         -1.00442       -1.77332       -4.61599
H          1.47083       -2.33922       -2.44916
H          0.80368       -2.87185       -0.83967
H          0.81237       -3.96794       -2.25179
Na        -2.58247       -0.56103       -1.58573
Mg         3.96595        1.19512       -1.44366
C         -5.46587        0.16830       -2.32629
C         -5.04933        0.31892        0.01397
O         -4.86341       -0.42916       -1.18283
C         -5.08529        1.63253       -2.59439
C         -6.50553        0.34919        0.50079
H         -5.12943       -0.42189       -3.20370
H         -6.56974        0.04863       -2.29826
H         -4.45180       -0.16256        0.81551
H         -4.64667        1.34713       -0.07784
H         -6.85559       -0.67292        0.75616
H         -6.57189        0.98229        1.41174
H         -7.18663        0.79145       -0.25431
H         -3.98173        1.74842       -2.61370
H         -5.49676        1.94350       -3.57776
H         -5.52402        2.31352       -1.83519
H          3.78297        3.08108       -3.23223
C          5.34414        1.81675       -4.04857
C          4.64594        2.47899       -2.87575
C          4.39263        0.89575       -4.81031
H          5.70888        2.61402       -4.73294
H          6.21401        1.23819       -3.67024
H          4.02226        0.09389       -4.14071
H          3.52070        1.47843       -5.18031
C          5.11064        0.26861       -5.99900
H          5.36070        3.15624       -2.36235
H          5.48973        1.06492       -6.67517
H          5.96583       -0.34660       -5.64622
H          4.40939       -0.37786       -6.56563
C          3.66322       -0.95299        4.50078
C          4.59675       -1.89347        4.15216
C          5.11328       -1.51963        2.92208
C          4.34032       -0.39201        2.51202
N          3.53719       -0.05517        3.43762
C          4.12676        0.46034        1.15456
N          3.30262       -0.05729       -0.04667
C          4.13646       -1.35026       -0.34859
H          4.84898       -2.83439        4.69021
H          3.05097       -1.01306        5.38051
H          5.82623       -2.10794        2.36240
H          5.11551        0.82776        0.84866
H          3.73242        1.45617        1.31900
C          3.84139       -2.48602        0.68604
C          3.73580       -2.04149       -1.62823
C          5.67562       -1.15745       -0.53729
H          3.72694       -2.76923        1.72409
H          4.31385       -3.45045        0.36262
H          2.78369       -2.30179        0.72564
H          3.61439       -1.41541       -2.51979
H          4.31545       -2.96620       -1.85884
H          2.88494       -2.54676       -1.31406
H          5.88670       -0.39510       -1.31856
H          6.20912       -0.90702        0.39479
H          6.15326       -2.11380       -0.85578
