110
speciation2056.ct
Na         4.46991        4.34257        3.17000
Mg         2.00530        4.91644       -1.07625
C          3.54886        5.67002        5.83313
C          4.47464        3.56986        6.27814
O          3.70110        4.32467        5.35883
C          4.84077        6.49021        5.92383
C          4.71982        2.16481        5.75866
H          2.91305        6.23501        5.12393
H          2.99462        5.68805        6.79738
H          5.47695        4.01173        6.45305
H          3.92413        3.48136        7.24200
H          5.33518        2.20271        4.83531
H          5.27710        1.58902        6.53077
H          3.75860        1.65298        5.55195
H          5.38455        6.46020        4.95639
H          4.57829        7.54585        6.15168
H          5.49754        6.14286        6.74588
H          0.78409        6.26088        0.90238
C          2.00539        4.86230        1.99192
C          1.13810        5.21393        0.80577
C          1.22971        4.84282        3.30780
H          2.45391        3.86738        1.86273
H          2.82682        5.61174        2.03318
H          1.96467        4.73399        4.07050
H          0.68422        5.79457        3.47240
C          0.34982        3.61852        3.54608
H          0.24422        4.56727        0.79859
H         -0.50289        3.57503        2.84636
H          0.95895        2.68913        3.46635
H         -0.03578        3.66481        4.59048
C          6.24480        5.19516        0.57813
C          6.54935        5.01952       -0.74416
C          5.69507        4.04385       -1.21311
C          4.92837        3.63689       -0.14944
N          5.25530        4.36086        0.93399
C          3.90576        2.53483       -0.16265
N          2.83482        2.81534       -1.13246
C          1.81590        1.73450       -1.26149
H          7.30795        5.55191       -1.30200
H          6.72240        5.89298        1.25250
H          5.64506        3.67482       -2.21332
H          4.42965        1.59716       -0.44539
H          3.51096        2.38361        0.85258
C          1.02302        1.56166        0.05016
C          0.88965        2.16537       -2.39050
C          2.40681        0.36634       -1.70594
H          0.69606        2.53645        0.43393
H          0.12932        0.91804       -0.08350
H          1.66128        1.10109        0.83215
H          1.44393        2.29740       -3.34503
H          0.04753        1.45800       -2.54189
H          0.46404        3.10082       -2.10888
H          3.28030        0.49823       -2.37212
H          2.70123       -0.26410       -0.84527
H          1.65875       -0.22475       -2.28969
Na         4.14482        2.42376       -3.06830
Mg         4.55685        0.63151       -6.02347
C          3.48073        7.57446       -1.08803
C          3.69362        6.18307       -3.01590
O          3.45122        6.23777       -1.61433
C          2.82986        8.70722       -1.90961
C          5.11446        6.61258       -3.43301
H          2.97759        7.56313       -0.10043
H          4.53763        7.86023       -0.88718
H          3.56164        5.13409       -3.34969
H          2.94432        6.77283       -3.58452
H          5.87811        5.94871       -3.01299
H          5.22177        6.54586       -4.53747
H          5.35991        7.65267       -3.13259
H          1.77682        8.49336       -2.11560
H          2.88551        9.66341       -1.35822
H          3.34807        8.88224       -2.88817
H          0.38107        5.33357       -3.24326
C         -0.73454        6.78266       -2.05953
C          0.09082        5.48824       -2.18253
C         -1.92555        6.76139       -3.04084
H         -1.10358        6.89025       -1.01360
H         -0.11713        7.65315       -2.30878
H         -1.51633        6.68181       -4.07250
H         -2.58608        5.88391       -2.85884
C         -2.77331        8.03082       -2.96456
H         -0.65974        4.73662       -1.86826
H         -3.33994        8.06902       -2.00998
H         -2.13385        8.93469       -3.04954
H         -3.50167        8.03975       -3.80477
C          2.04462        4.43699       -6.24373
C          2.76556        5.37527       -6.96133
C          4.08842        5.01331       -6.87468
C          4.18491        3.90291       -6.13465
N          2.91512        3.48366       -5.69733
C          5.51143        3.25924       -5.83839
N          5.45482        2.03217       -5.00414
C          6.82905        1.49645       -4.69832
H          2.35890        6.22961       -7.49018
H          0.97192        4.45277       -6.11977
H          4.89971        5.55485       -7.32249
H          6.09787        4.04353       -5.32678
H          5.96424        3.02953       -6.82037
C          7.71490        2.46928       -3.87390
C          6.66417        0.21010       -3.87614
C          7.61475        1.14003       -5.98626
H          7.30368        2.64605       -2.87503
H          8.71735        2.02265       -3.69643
H          7.90317        3.43497       -4.38364
H          6.08773       -0.54662       -4.44818
H          7.65855       -0.22458       -3.62606
H          6.13035        0.42321       -2.92592
H          7.05900        0.40588       -6.60460
H          7.84933        2.03393       -6.59954
H          8.60141        0.69632       -5.72427
