80
speciation895.ct
Na         1.13361        1.78226        0.05831
Mg         3.44415       -0.18434       -1.46935
H          1.71791       -0.77602       -3.43998
C          3.29762       -0.05355       -4.71418
C          2.51509       -0.00352       -3.39772
C          3.90777       -1.43740       -4.96250
H          2.59708        0.17329       -5.55046
H          4.09077        0.72415       -4.69915
H          4.59673       -1.69483       -4.13659
H          3.10559       -2.20749       -4.99567
C          4.67301       -1.47627       -6.28587
H          2.01360        0.98484       -3.32419
H          3.98500       -1.28649       -7.13898
H          5.47785       -0.70983       -6.29357
H          5.13512       -2.47572       -6.42378
C         -1.89308        0.75310        0.34685
C         -2.50988       -0.48240        0.28442
C         -1.51226       -1.41346        0.06548
C         -0.33188       -0.69950        0.01770
N         -0.56774        0.60631        0.17788
C          1.04817       -1.24578       -0.18725
N          2.06734       -0.18780        0.03102
C          2.70282       -0.19663        1.37784
H         -3.56876       -0.68033        0.38389
H         -2.38467        1.70398        0.49934
H         -1.63446       -2.48353       -0.03554
H          1.11528       -1.62870       -1.22486
H          1.19499       -2.11291        0.48111
C          3.52422       -1.48513        1.62446
C          3.63875        1.01775        1.43467
C          1.66340       -0.04810        2.51564
H          4.21785       -1.68620        0.79491
H          4.11100       -1.39663        2.56448
H          2.88417       -2.38113        1.74648
H          3.05731        1.95485        1.33545
H          4.18675        1.06135        2.39968
H          4.36683        0.98599        0.60471
H          1.05464        0.87052        2.38426
H          0.97861       -0.92077        2.56018
H          2.17499        0.01912        3.50086
Na         1.23280        6.14138       -3.79280
Mg         3.02037        4.12792        1.49579
H          5.79939       -0.57426       -0.31927
C          6.61747       -0.35751       -2.28698
C          5.49493       -0.83493       -1.35450
C          6.82415        1.16427       -2.31552
H          7.56828       -0.84246       -1.97048
H          6.40094       -0.69257       -3.31847
H          7.63993        1.37718       -3.03951
H          5.89920        1.66475       -2.67568
C          7.23746        1.75433       -0.96661
H          5.44497       -1.94161       -1.40798
H          6.43060        1.64234       -0.21798
H          8.15880        1.26066       -0.59083
H          7.44122        2.83960       -1.08611
C          3.41999        7.46578       -1.97673
C          4.22700        7.24028       -0.88008
C          3.96664        5.95561       -0.45473
C          3.00079        5.45770       -1.30807
N          2.67685        6.37449       -2.23970
C          2.36329        4.10584       -1.22268
N          1.70401        3.87089        0.07703
C          0.49089        4.65535        0.42453
H          4.92231        7.93929       -0.43485
H          3.37001        8.38345       -2.54719
H          4.41716        5.45162        0.38930
H          3.16724        3.34978       -1.33858
H          1.65149        3.94831       -2.05705
C         -0.61293        4.49660       -0.64019
C         -0.03107        4.09738        1.76097
C          0.78850        6.15694        0.64631
H         -0.85650        3.42737       -0.79390
H         -1.53635        5.03054       -0.32333
H         -0.30156        4.93787       -1.61211
H          0.74320        4.20377        2.55197
H         -0.94202        4.64240        2.09026
H         -0.28437        3.02229        1.66744
H          1.60154        6.29096        1.39100
H          1.05933        6.67619       -0.28958
H         -0.11585        6.68274        1.01778
