83
speciation471.ct
Na         1.36081        1.44320        0.32726
Mg         3.38692       -0.35283       -1.77093
C          1.19837        1.81993        3.74831
C         -0.08616        3.09600        2.25244
O          1.11679        2.36835        2.40575
C          0.08735        0.81982        4.14208
C         -0.09858        4.40604        3.04265
H          2.18467        1.34690        3.89109
H          1.29142        2.60122        4.52545
H         -0.19165        3.34923        1.17936
H         -0.97210        2.47155        2.48462
H          0.70479        5.07451        2.67290
H         -1.08569        4.89176        2.91359
H          0.03363        4.25018        4.13146
H         -0.06183        0.04340        3.36409
H          0.35268        0.31487        5.09668
H         -0.87379        1.34188        4.32883
C         -1.63285        0.68328       -0.19654
C         -2.26786       -0.52150       -0.41382
C         -1.28790       -1.49934       -0.39280
C         -0.08948       -0.84777       -0.18150
N         -0.31780        0.46892       -0.04118
C          1.29344       -1.48735       -0.11272
N          2.37683       -0.46449       -0.06311
C          3.39528       -0.61618        0.98821
H         -3.32701       -0.67074       -0.57063
H         -2.09880        1.65834       -0.15272
H         -1.43287       -2.56074       -0.53011
H          1.45196       -2.09904       -1.02536
H          1.30525       -2.18240        0.74914
C          4.24918       -1.88782        0.88067
C          4.30534        0.59262        0.84611
C          2.72826       -0.59454        2.34306
H          4.77910       -1.93779       -0.09161
H          5.01028       -1.88077        1.69601
H          3.62609       -2.79448        1.01119
H          3.71681        1.53666        0.86080
H          5.06357        0.63852        1.65484
H          4.83741        0.50526       -0.12325
H          1.95479        0.15132        2.22311
H          2.20030       -1.52918        2.60421
H          3.45455       -0.36728        3.15226
Na         4.54428        4.86886        1.61309
C          3.76004       -0.50723       -4.43237
C          5.71438       -0.79193       -3.07871
O          4.48314       -0.11681       -3.27864
C          3.46708       -2.00539       -4.52696
C          6.78022       -0.39568       -4.10474
H          2.78204        0.01601       -4.37457
H          4.24943       -0.12513       -5.34812
H          6.10834       -0.49579       -2.08128
H          5.58612       -1.89177       -3.03245
H          6.99175        0.69293       -4.04704
H          7.71994       -0.94863       -3.89273
H          6.46360       -0.65128       -5.13587
H          2.99104       -2.35815       -3.59089
H          2.78795       -2.18497       -5.38102
H          4.39871       -2.57836       -4.72231
C          0.97644        2.30441       -2.67263
C          1.19179        3.24174       -3.66767
C          1.85956        4.28810       -3.07941
C          2.04160        3.93032       -1.75315
N          1.47711        2.73170       -1.48921
C          2.79403        4.72708       -0.74831
N          3.95067        3.97852       -0.22975
C          5.10053        3.70940       -1.14451
H          0.90861        3.16013       -4.71203
H          0.48877        1.35281       -2.81895
H          2.20913        5.18815       -3.57302
H          3.11186        5.70737       -1.15602
H          2.09802        4.93454        0.09070
C          5.60862        4.97493       -1.85323
C          6.27253        3.18449       -0.29059
C          4.73487        2.64845       -2.20246
H          5.90647        5.74089       -1.10691
H          6.49570        4.72414       -2.47732
H          4.84363        5.39988       -2.53321
H          6.02899        2.28241        0.27492
H          7.14530        2.93494       -0.93077
H          6.58694        3.94514        0.45269
H          4.20025        1.80317       -1.73439
H          4.08464        3.05045       -2.99670
H          5.63903        2.27638       -2.72582
