110
speciation2675.ct
Na         0.93105       -0.03990       -0.06045
Mg        -2.64142       -0.50799       -5.03998
C         -4.15320       -3.37632       -4.90419
C         -5.31756       -1.46981       -4.16588
O         -4.14615       -1.93691       -4.80374
C         -5.28454       -3.95977       -5.79545
C         -5.13340       -0.00782       -3.78450
H         -3.19423       -3.69733       -5.35213
H         -4.21195       -3.87149       -3.90366
H         -6.17791       -1.49277       -4.87270
H         -5.57089       -2.07850       -3.26124
H         -4.08166        0.29932       -3.60262
H         -5.88580        0.33528       -3.03746
H         -5.33921        0.56810       -4.67285
H         -5.33173       -3.45271       -6.77905
H         -5.10430       -5.04532       -5.97947
H         -6.28520       -3.89557       -5.30850
H          5.54732       -3.84884       -0.31413
C          4.64085       -3.98714        1.65052
C          5.15599       -3.16389        0.45906
C          3.49884       -4.93554        1.28004
H          5.47985       -4.58765        2.06440
H          4.32442       -3.32635        2.48052
H          3.18291       -5.46260        2.20665
H          2.62768       -4.36813        0.88733
C          3.94791       -5.98759        0.26528
H          6.06092       -2.65029        0.83126
H          4.18176       -5.52233       -0.71371
H          4.85005       -6.51701        0.64324
H          3.13913       -6.72691        0.10525
C         -0.98251        2.04334       -4.22547
C         -0.40506        2.75832       -3.16225
C         -0.65042        2.06190       -2.01641
C         -1.36033        0.94918       -2.39739
N         -1.59296        0.94016       -3.74810
C         -1.84363       -0.11930       -1.50003
N         -1.43895       -0.03990       -0.06045
C         -1.89489       -1.28055        0.62895
H          0.14370        3.70469       -3.23474
H         -0.91754        2.37105       -5.23889
H         -0.34300        2.33841       -1.01874
H         -1.46038       -1.03404       -1.97046
H         -2.93941       -0.06224       -1.59736
C         -0.96894       -2.46780        0.25177
C         -1.82964       -1.00486        2.12873
C         -3.36523       -1.67917        0.27182
H          0.08621       -2.24277        0.50924
H         -1.28144       -3.39968        0.76665
H         -1.00034       -2.71125       -0.82948
H         -2.53536       -0.18818        2.38106
H         -2.11173       -1.91229        2.70661
H         -0.80519       -0.68833        2.41409
H         -4.05612       -0.82337        0.42895
H         -3.46016       -2.01635       -0.78509
H         -3.70839       -2.53774        0.88462
Na        -2.47090        1.72337        0.56519
Mg         3.95436       -1.75241       -0.76909
C         -2.74233        0.82910       -7.67088
C         -1.44447       -1.06545       -7.75677
O         -2.02813       -0.11075       -6.87871
C         -3.50293        1.83026       -6.82813
C         -0.50792       -2.00803       -7.02892
H         -2.01996        1.42086       -8.27772
H         -3.48481        0.32777       -8.33627
H         -2.22164       -1.66163       -8.28720
H         -0.80313       -0.54206       -8.50857
H         -1.06918       -2.61418       -6.29189
H         -0.03478       -2.68914       -7.77245
H          0.29058       -1.42813       -6.52524
H         -2.84056        2.35463       -6.12701
H         -3.97133        2.59217       -7.48464
H         -4.29507        1.31445       -6.27993
H          2.83819       -3.36781       -2.51586
C          1.49081       -1.66474       -2.79185
C          2.39461       -2.55330       -1.91005
C          2.17430       -0.91916       -3.94981
H          0.68640       -2.30258       -3.21860
H          1.00817       -0.90322       -2.14982
H          1.39355       -0.33325       -4.48578
H          2.91645       -0.19765       -3.56732
C          2.84245       -1.85007       -4.95645
H          1.75115       -3.00471       -1.12943
H          3.67447       -2.40725       -4.48166
H          2.10228       -2.56820       -5.36639
H          3.25918       -1.24986       -5.79376
C          6.04929       -1.24869       -2.88661
C          6.43801       -0.05916       -3.46476
C          5.68831        0.93609       -2.85934
C          4.89226        0.28658       -1.92705
N          5.12595       -1.00425       -1.94298
C          3.86233        0.94752       -1.02173
N          3.30105       -0.03990       -0.06045
C          3.62343        0.24546        1.36604
H          7.17111        0.07019       -4.24391
H          6.41645       -2.24093       -3.13215
H          5.73973        1.99758       -3.08492
H          3.04550        1.38831       -1.63806
H          4.37652        1.78941       -0.52574
C          3.10031        1.62652        1.84673
C          2.88378       -0.81353        2.19074
C          5.14809        0.19924        1.61994
H          2.00751        1.72012        1.68711
H          3.31131        1.74636        2.93584
H          3.60275        2.47635        1.34597
H          3.08276       -1.81092        1.78866
H          3.16132       -0.75853        3.26789
H          1.78478       -0.67038        2.11303
H          5.58403       -0.70334        1.19969
H          5.67512        1.04804        1.14766
H          5.36944        0.22605        2.70958
