110
speciation2070.ct
Na         1.06983        0.07040       -0.01294
Mg         2.10245       -4.90604       -1.95430
C         -1.67620       -0.98887       -0.84927
C         -1.76392        1.34583       -0.38143
O         -1.25017        0.07040       -0.01294
C         -1.45950       -0.75056       -2.34245
C         -3.28501        1.45804       -0.20153
H         -1.07900       -1.88109       -0.56453
H         -2.73220       -1.25741       -0.63537
H         -1.30554        2.10321        0.28766
H         -1.46175        1.63701       -1.40737
H         -3.56203        1.30205        0.86227
H         -3.61894        2.47136       -0.51061
H         -3.83021        0.72514       -0.83105
H         -0.39446       -0.51315       -2.54979
H         -1.74683       -1.66833       -2.86506
H         -2.11645        0.05025       -2.73844
H          4.56855       -3.91404       -2.63297
C          4.79612       -5.51239       -4.08390
C          4.20131       -4.95235       -2.76613
C          4.30129       -4.86918       -5.39357
H          5.91007       -5.46909       -4.05406
H          4.51180       -6.58456       -4.12098
H          4.60445       -5.53315       -6.23340
H          3.20108       -4.83251       -5.36569
C          4.87454       -3.48757       -5.74014
H          4.64559       -5.57361       -1.95492
H          4.68469       -2.73604       -4.94922
H          5.96754       -3.54986       -5.94276
H          4.39239       -3.13649       -6.68128
C          2.12598       -4.44127        1.20657
C          2.44828       -3.70607        2.33458
C          2.97062       -2.52209        1.91114
C          2.95590       -2.55561        0.54030
N          2.42833       -3.76812        0.05607
C          3.65413       -1.44145       -0.24845
N          3.43983        0.07040       -0.01294
C          4.11279        0.74406       -1.20669
H          2.35338       -4.01074        3.37489
H          1.72776       -5.45150        1.22692
H          3.38340       -1.73153        2.53975
H          3.47066       -1.75442       -1.28349
H          4.72053       -1.65156       -0.01284
C          3.28677        0.54745       -2.51590
C          4.25232        2.25202       -0.96089
C          5.56690        0.22684       -1.49926
H          3.21197       -0.50726       -2.86275
H          3.78091        1.05833       -3.37055
H          2.25804        0.93532       -2.41034
H          4.91484        2.43975       -0.09059
H          4.73398        2.72847       -1.85050
H          3.27058        2.73362       -0.80446
H          6.23260        0.36181       -0.62775
H          5.60453       -0.84266       -1.80931
H          6.01682        0.76752       -2.35734
Na         4.22983        0.71346        2.12699
Mg         4.78166       -0.17048        5.45796
C         -0.10952       -7.29683       -2.66788
C          2.02905       -8.13182       -1.98898
O          1.23854       -6.95472       -2.24151
C         -1.00762       -7.85855       -1.57321
C          1.80328       -9.42421       -2.87921
H         -0.61226       -6.42066       -3.08552
H         -0.10940       -8.00644       -3.54185
H          3.07998       -7.86123       -2.17788
H          1.91792       -8.44751       -0.93519
H          1.85980       -9.21096       -3.96893
H          2.58907      -10.16446       -2.64672
H          0.83873       -9.93235       -2.66305
H         -1.08818       -7.10635       -0.75170
H         -2.01023       -8.05746       -1.97913
H         -0.61248       -8.81366       -1.16426
H         -0.13078       -3.61137       -2.39981
C          0.32362       -3.96969       -4.49031
C          0.76144       -3.59541       -3.06010
C         -0.83279       -3.09926       -5.01728
H          1.18495       -3.90514       -5.17878
H         -0.03415       -5.00768       -4.49199
H         -1.69906       -3.18428       -4.33200
H         -0.51100       -2.03741       -5.09353
C         -1.33381       -3.58336       -6.37639
H          1.18927       -2.56876       -3.05637
H         -0.52231       -3.55143       -7.13152
H         -1.71590       -4.62415       -6.28955
H         -2.17237       -2.93873       -6.71996
C          9.19576       -0.56375        3.26295
C          8.47673       -0.53455        2.08582
C          7.35487        0.25260        2.31060
C          7.39075        0.68622        3.56699
N          8.53524        0.19055        4.23689
C          6.46599        1.70483        4.19580
N          5.01982        1.35652        4.26692
C          4.20864        2.47445        4.82838
H          8.76711       -1.01449        1.16145
H         10.14759       -1.07163        3.40453
H          6.60795        0.52585        1.57862
H          6.61669        2.60058        3.57086
H          6.86515        1.88970        5.20925
C          4.33613        3.77885        3.99720
C          2.72492        2.04267        4.80712
C          4.58473        2.78940        6.30221
H          4.06973        3.59727        2.93368
H          3.65632        4.57099        4.39639
H          5.34431        4.22012        4.04705
H          2.57566        1.14668        5.42134
H          2.07907        2.86694        5.22075
H          2.39736        1.84521        3.76773
H          4.47033        1.88981        6.93383
H          5.62131        3.16932        6.39986
H          3.92578        3.59558        6.71063
