110
speciation2319.ct
Na         1.44554        1.71808       -0.39227
Mg        -0.60163        0.21110       -1.17466
C         -0.32556        3.37358       -1.72257
C         -1.43096        3.26283        0.39502
O         -0.58785        2.62882       -0.57729
C          0.53535        4.54518       -1.35541
C         -2.83326        3.52284       -0.14453
H          0.26442        2.70725       -2.38310
H         -1.22070        3.59091       -2.32643
H         -1.62058        2.60237        1.27051
H         -0.94562        4.14884        0.83203
H         -3.31069        2.56240       -0.44496
H         -3.44268        3.99871        0.64854
H         -2.80484        4.20884       -1.00912
H          1.32368        4.12203       -0.73425
H          0.97568        5.01312       -2.24759
H         -0.03085        5.28577       -0.76198
H         -3.18013       -1.38820       -1.30436
C         -2.19255       -2.44574       -2.83112
C         -2.37832       -1.14416       -2.00528
C         -1.38031       -3.66887       -2.30862
H         -3.21056       -2.82785       -3.06704
H         -1.68665       -2.11114       -3.74684
H         -0.34229       -3.40143       -2.12641
H         -1.80238       -4.14508       -1.39053
C         -1.25708       -4.70675       -3.42579
H         -2.81554       -0.35843       -2.62657
H         -2.25204       -5.11199       -3.69400
H         -0.80653       -4.22079       -4.32021
H         -0.58567       -5.54330       -3.13034
C          6.57773        5.43412       -4.05927
C          6.42202        4.89022       -5.35168
C          5.44418        3.88306       -5.38214
C          5.01322        3.79767       -4.07919
N          5.73820        4.83916       -3.20787
C          3.19650        2.36625       -2.98213
N          1.92436        1.04914       -1.80148
C          0.98894       -0.02396       -0.39639
H          7.00628        5.21809       -6.20871
H          7.27114        6.21654       -3.78157
H          5.12143        3.32043       -6.22299
H          2.75629        3.30456       -2.55165
H          2.66804        2.22620       -3.91286
C         -0.01093        0.65414        0.81908
C          0.23575       -1.46887       -0.69893
C          1.50007       -0.95695        0.98809
H         -1.03990        0.74594        0.51997
H         -0.26607        0.13415        1.79150
H          0.34394        1.55796        1.31633
H          0.81702       -2.41327       -0.81210
H         -0.32534       -1.92858        0.20800
H         -0.82171       -1.48518       -0.42744
H          2.17433       -1.81873        0.66764
H          1.92993       -0.30768        1.79612
H          0.92231       -1.57177        1.73482
Na         4.08606       -1.80850       -1.20297
Mg         4.68937        4.26502       -1.61714
C          5.24558       -4.67964       -1.57582
C          5.86900       -3.28973       -3.37264
O          4.85939       -3.61569       -2.43522
C          6.47795       -4.40640       -0.70099
C          5.40688       -2.14420       -4.26230
H          4.39017       -4.86074       -0.89124
H          5.38436       -5.61928       -2.15278
H          6.80373       -2.95112       -2.87921
H          6.07119       -4.16635       -4.02766
H          5.25781       -1.22457       -3.65687
H          6.18387       -1.93839       -5.03051
H          4.45811       -2.40683       -4.77415
H          6.34558       -3.48421       -0.12146
H          6.61126       -5.23461        0.02468
H          7.40853       -4.33647       -1.29951
H         -3.17044        0.07000        1.42795
C         -2.73397       -1.75201        2.48154
C         -2.60929       -0.84728        1.14146
C         -2.12236       -1.22670        3.80356
H         -3.81445       -1.93830        2.75286
H         -2.32958       -2.77456        2.30480
H         -2.22759       -1.99923        4.61070
H         -1.04435       -1.04756        3.66045
C         -2.82593        0.02663        4.33325
H         -3.41930       -1.39798        0.63025
H         -2.79763        0.83330        3.57862
H         -3.88595       -0.19420        4.59800
H         -2.31795        0.38541        5.25511
C          3.14632        4.66874        0.74998
C          2.44182        4.12225        1.77364
C          2.55503        2.75902        1.60903
C          3.36205        2.53267        0.47615
N          3.64055        3.69087       -0.02641
C          3.95570        1.32565       -0.22605
N          3.29607        0.03764        0.05583
C          4.30517       -0.37989        1.30098
H          1.91052        4.65937        2.54870
H          3.28225        5.72512        0.55092
H          2.08608        2.08462        2.28888
H          5.00903        1.48705       -0.01321
H          4.23783        1.35324       -1.26535
C          4.43694        0.66885        2.48228
C          4.03642       -1.70920        2.12358
C          5.79946       -0.63666        0.84323
H          5.04657        0.29950        3.33439
H          4.95574        1.61329        2.20938
H          3.48420        0.84246        2.98806
H          4.02603       -2.61907        1.49728
H          4.85619       -1.88493        2.86490
H          3.16748       -1.67421        2.81291
H          5.85158       -1.47709        0.15262
H          6.39397        0.17136        0.38293
H          6.44351       -0.86586        1.72700
