96
speciation1506.ct
Na         1.73971        1.16690       -0.35360
Mg         1.12685       -3.29072        0.05147
C          0.12120       -2.13594        2.71773
C         -0.23638       -0.65528        0.91554
O          0.48892       -1.80223        1.37277
C         -1.38530       -2.22456        2.99991
C          0.01285        0.63588        1.72337
H          0.58475       -3.11997        2.95996
H          0.59330       -1.41833        3.42199
H          0.10644       -0.39497       -0.06358
H         -1.31751       -0.85812        0.79396
H          1.08015        0.86141        1.75503
H         -0.48159        1.49771        1.22531
H         -0.35060        0.58363        2.76682
H         -1.85803       -2.95486        2.31963
H         -1.55470       -2.53616        4.05070
H         -1.88727       -1.24141        2.88814
H         -1.07019       -3.20635       -1.44334
C         -1.89148       -4.80644       -0.25913
C         -0.69454       -4.09495       -0.89335
C         -2.88725       -5.25036       -1.34904
H         -1.55501       -5.70693        0.28893
H         -2.39544       -4.12272        0.45421
H         -3.26481       -4.35761       -1.89306
H         -2.38536       -5.91885       -2.08247
C         -4.06795       -6.00763       -0.75305
H         -0.33259       -4.81875       -1.62587
H         -3.71925       -6.94601       -0.27225
H         -4.58581       -5.37709        0.00046
H         -4.78929       -6.26933       -1.55566
C          6.62422       -0.79197       -2.96574
C          7.25951        0.41326       -3.25164
C          6.56528        1.40448       -2.58942
C          5.55303        0.76606       -1.91165
N          5.54474       -0.54181       -2.19923
C          4.43882        1.40730       -1.08920
N          3.70846        0.40253       -0.26357
C          4.23953        0.25851        1.14002
H          8.09082        0.56391       -3.92294
H          6.86563       -1.75020       -3.42617
H          6.73995        2.48246       -2.61523
H          3.71874        1.84600       -1.80196
H          4.82212        2.24628       -0.49383
C          3.98138        1.54217        1.97244
C          3.55165       -0.91570        1.83722
C          5.75604       -0.05096        1.15744
H          2.91921        1.83962        1.95962
H          4.27202        1.39100        3.03254
H          4.55227        2.41388        1.60703
H          3.69126       -1.83728        1.25820
H          3.96009       -1.07344        2.86858
H          2.48382       -0.73815        1.96920
H          5.97207       -0.99119        0.62370
H          6.33647        0.78095        0.71560
H          6.10089       -0.15549        2.21550
Mg         3.89870       -1.07443       -1.55418
C          1.41099       -6.17611        1.13479
C          3.27945       -4.84152        1.78551
O          2.00603       -4.87209        1.11943
C          0.97742       -6.65286        2.53273
C          4.25788       -6.00986        1.47573
H          0.53101       -6.16317        0.47910
H          2.06541       -6.93272        0.65088
H          3.79956       -3.94366        1.44072
H          3.14783       -4.75210        2.88831
H          5.26828       -5.77214        1.86934
H          3.93610       -6.95868        1.95796
H          4.36361       -6.19592        0.38924
H          0.22734       -5.96033        2.96781
H          0.52480       -7.66506        2.45344
H          1.84300       -6.73615        3.22278
C          3.66121        0.36133       -4.35013
C          2.58389        0.57374       -5.15984
C          1.50533       -0.06585       -4.55666
C          2.02127       -0.66597       -3.41650
N          3.28401       -0.35194       -3.26401
C          1.36168       -1.58270       -2.43413
N          2.32461       -2.45172       -1.67115
C          2.95581       -3.54888       -2.51468
H          2.58416        1.12859       -6.08771
H          4.67122        0.72228       -4.53557
H          0.49473       -0.09365       -4.92218
H          0.53192       -2.14485       -2.89551
H          0.90130       -0.86991       -1.76973
C          3.87864       -3.06163       -3.65115
C          3.83891       -4.35106       -1.56983
C          1.96344       -4.50710       -3.20155
H          4.67854       -2.44844       -3.25348
H          4.38919       -3.91591       -4.14256
H          3.33126       -2.54955       -4.46584
H          3.17360       -4.84964       -0.86505
H          4.41880       -5.12964       -2.09452
H          4.53431       -3.67620       -1.02294
H          1.44061       -5.12355       -2.47074
H          1.27117       -3.97469       -3.88645
H          2.51299       -5.24707       -3.82276
