81
speciation620.ct
Na         1.48599        0.19629       -0.52876
Mg         4.19811        1.75882        0.83043
C          4.06072        1.12357        3.62365
C          3.46339        3.37854        3.18357
O          4.20075        2.23878        2.74624
C          2.61452        0.68532        3.89257
C          4.00445        3.96742        4.49654
H          4.58221        0.27037        3.16942
H          4.61198        1.29007        4.57344
H          3.55194        4.17944        2.43667
H          2.37623        3.17856        3.24294
H          5.07848        4.23198        4.38985
H          3.43546        4.88433        4.75487
H          3.88847        3.25982        5.34313
H          2.06824        0.53729        2.94097
H          2.61988       -0.26433        4.46615
H          2.07033        1.43169        4.50437
H          4.93273        4.36688        0.89247
C          4.83692        4.29455       -1.22589
C          5.10827        3.60648        0.11591
C          3.34818        4.62584       -1.42918
H          5.42849        5.23575       -1.26981
H          5.21206        3.65462       -2.04858
H          2.72600        3.71098       -1.34856
H          3.00328        5.33704       -0.64836
C          3.12279        5.23693       -2.81245
H          6.18902        3.36398        0.16548
H          3.69680        6.18183       -2.91624
H          3.44818        4.52673       -3.60339
H          2.04388        5.45548       -2.96213
C          6.74382       -2.61293        1.54243
C          7.18349       -1.30712        1.60020
C          6.09829       -0.52070        1.28940
C          5.05676       -1.38546        1.02018
N          5.44019       -2.65490        1.20418
C          3.66767       -1.03094        0.62458
N          3.60922        0.11892       -0.28963
C          4.19082       -0.06295       -1.65930
H          8.17704       -0.96550        1.85382
H          7.34143       -3.48711        1.75796
H          6.08235        0.55918        1.24558
H          3.12335       -0.75724        1.53735
H          3.13152       -1.91627        0.22404
C          3.75809       -1.38238       -2.33685
C          3.66153        1.08040       -2.51617
C          5.73842        0.01705       -1.66834
H          2.65203       -1.44791       -2.41034
H          4.17834       -1.43662       -3.36591
H          4.14039       -2.26864       -1.78877
H          3.92655        2.00695       -2.02360
H          4.10228        1.07185       -3.53586
H          2.55374        1.04434       -2.59721
H          6.08863        0.93908       -1.15709
H          6.20101       -0.87520       -1.21079
H          6.12445        0.03407       -2.70807
Mg         4.38273       -4.33999        1.15567
C          4.07895       -7.09726        0.78815
C          3.31976       -8.24723        0.77793
C          2.03969       -7.86761        1.10389
C          2.08165       -6.49802        1.30001
N          3.32527       -6.02508        1.10715
C          0.93481       -5.64553        1.66522
N          0.76203       -4.66360        0.59306
C         -0.33177       -3.69874        0.78517
H          3.66777       -9.24737        0.55844
H          5.13640       -7.04168        0.57723
H          1.17946       -8.51685        1.19016
H          0.03904       -6.29142        1.76081
H          1.16913       -5.15918        2.62932
C         -0.04673       -2.77724        1.98963
C         -0.38767       -2.84237       -0.48666
C         -1.68758       -4.41309        0.95597
H          0.93301       -2.26743        1.86376
H         -0.83936       -2.00526        2.08369
H         -0.02667       -3.34326        2.94358
H         -0.56902       -3.48260       -1.37803
H         -1.19261       -2.08308       -0.42266
H          0.57955       -2.31516       -0.64042
H         -1.87068       -5.09754        0.09832
H         -1.72402       -5.00329        1.89400
H         -2.51441       -3.67467        1.00704
