110
speciation1918.ct
Na         1.10954        1.83425        0.48089
Mg         0.72277       -1.24847       -6.35938
C          1.49133        2.16649        3.72714
C          0.07978        3.73091        2.70699
O          1.18228        2.85378        2.51011
C          0.37204        1.23668        4.25286
C          0.39898        4.90616        3.64631
H          2.44195        1.63934        3.57357
H          1.83169        2.84268        4.53416
H         -0.21041        4.15940        1.73657
H         -0.82428        3.18629        3.04570
H          1.24816        5.49755        3.24580
H         -0.49369        5.55568        3.74196
H          0.64335        4.57637        4.67656
H         -0.07351        0.61345        3.44968
H          0.77843        0.57097        5.04160
H         -0.45095        1.82220        4.70883
H          2.16682       -0.83454       -8.74030
C          1.36062        1.13950       -8.39910
C          1.21447       -0.38314       -8.38393
C          2.40523        1.55233       -7.37368
H          1.64997        1.50675       -9.41314
H          0.38124        1.58981       -8.13688
H          2.11318        1.10086       -6.41028
H          3.40495        1.16809       -7.67647
C          2.46349        3.06212       -7.18640
H          0.44169       -0.64269       -9.13999
H          2.76902        3.57184       -8.12265
H          1.47028        3.44091       -6.86101
H          3.20362        3.30107       -6.39690
C         -1.90004        0.94132        0.14765
C         -2.44739       -0.28499       -0.16923
C         -1.39328       -1.17149       -0.29169
C         -0.24762       -0.44568       -0.07651
N         -0.56376        0.83211        0.21466
C          1.17366       -0.99003       -0.17778
N          2.24500        0.03300       -0.00400
C          3.23163       -0.26553        1.06440
H         -3.50378       -0.51283       -0.28560
H         -2.44832        1.85874        0.30006
H         -1.46395       -2.22397       -0.54845
H          1.24193       -1.37459       -1.20248
H          1.26598       -1.85838        0.49477
C          4.12984       -1.47600        0.75215
C          4.12312        0.98452        1.18881
C          2.52664       -0.56571        2.38443
H          4.71396       -1.32429       -0.17388
H          4.84989       -1.63204        1.58846
H          3.52902       -2.40660        0.66231
H          3.52331        1.89161        1.40157
H          4.88836        0.86135        1.98446
H          4.65259        1.15413        0.22936
H          1.67546        0.10152        2.40537
H          2.08324       -1.57668        2.44562
H          3.21366       -0.46418        3.25337
Na         5.88520       -1.51166       -3.15770
Mg         3.38218        0.08335       -1.63630
C          0.81938        4.41200       -0.96116
C          1.21909        2.61891       -2.51087
O          1.22276        3.08534       -1.16523
C         -0.68784        4.63086       -1.08818
C         -0.15005        2.21127       -3.06963
H          1.09976        4.62607        0.08853
H          1.41565        5.14756       -1.54562
H          1.70861        3.34767       -3.19621
H          1.84384        1.70864       -2.52438
H         -0.79853        3.07170       -3.29655
H         -0.00078        1.70065       -4.04256
H         -0.67142        1.51931       -2.38345
H         -1.24255        3.77771       -0.64357
H         -0.97629        5.56213       -0.56404
H         -0.97462        4.77625       -2.14296
H         -1.84900       -1.47100       -5.51678
C         -2.22226       -0.28427       -7.29636
C         -1.34386       -0.67022       -6.10032
C         -2.47991       -1.45798       -8.24571
H         -3.20340        0.08713       -6.92067
H         -1.72642        0.54259       -7.84306
H         -1.51480       -1.87344       -8.59831
H         -3.03983       -2.25718       -7.71209
C         -3.29207       -1.00606       -9.46057
H         -1.27152        0.22079       -5.44448
H         -4.28256       -0.60924       -9.15014
H         -2.74425       -0.21502      -10.01683
H         -3.45561       -1.86605      -10.14531
C          1.22926       -2.99525       -3.89862
C          2.02227       -3.21020       -2.78666
C          2.98878       -2.24180       -2.80393
C          2.74459       -1.46481       -3.91921
N          1.67246       -1.93370       -4.61729
C          3.52768       -0.25514       -4.30565
N          4.51935        0.13370       -3.26860
C          5.31356        1.33970       -3.59804
H          1.90510       -3.97192       -2.02271
H          0.36421       -3.59026       -4.15139
H          3.76736       -2.10773       -2.06852
H          2.78489        0.54809       -4.41859
H          4.00506       -0.51235       -5.27048
C          4.42849        2.59044       -3.54128
C          6.42658        1.44819       -2.54730
C          5.99245        1.24822       -4.99507
H          3.98391        2.68784       -2.53051
H          5.01510        3.50628       -3.75921
H          3.62126        2.53514       -4.29387
H          7.05827        0.53281       -2.57162
H          7.07941        2.32618       -2.73482
H          5.99634        1.53020       -1.53220
H          6.75294        0.43843       -5.01895
H          5.27651        1.08147       -5.82311
H          6.50085        2.20545       -5.24048
