96
speciation998.ct
Na         0.86926       -0.22818       -0.05835
Mg         1.00015        3.19437        1.26093
C         -1.01421       -2.27402        1.90187
C          0.35609       -0.83155        3.17135
O          0.01810       -1.27805        1.85892
C         -2.39444       -1.79515        2.39226
C          0.69912       -1.94636        4.19346
H         -1.09904       -2.69156        0.91951
H         -0.69868       -3.17753        2.46633
H          1.27610       -0.22939        3.07681
H         -0.44316       -0.17749        3.58297
H          1.51246       -2.59485        3.80525
H          1.02674       -1.49686        5.15310
H         -0.17862       -2.57890        4.45253
H         -2.80114       -0.98508        1.76054
H         -3.11789       -2.64346        2.34745
H         -2.36481       -1.45578        3.45025
H          2.85101        4.51096        2.58995
C          1.33755        3.97915        4.07033
C          1.74477        4.47602        2.70006
C          1.81309        2.54631        4.27139
H          1.76516        4.64616        4.84967
H          0.22780        4.01090        4.13093
H          1.38738        1.92251        3.46203
H          2.92277        2.49995        4.21598
C          1.34876        2.00528        5.61838
H          1.33334        5.49790        2.55017
H          1.76484        2.62239        6.44280
H          0.23888        2.02055        5.67454
H          1.69695        0.95896        5.74037
C          0.45335        6.11140       -2.50037
C          1.09325        6.38431       -1.31345
C          1.41079        5.17073       -0.74670
C          0.93946        4.19767       -1.60723
N          0.36360        4.79050       -2.68992
C          1.02483        2.69232       -1.40744
N          0.29454        2.14589       -0.23358
C         -1.18927        2.36947       -0.21613
H          1.30972        7.36111       -0.90236
H          0.06541        6.84616       -3.19326
H          1.92432        5.01446        0.18211
H          2.10072        2.42539       -1.31046
H          0.66761        2.22324       -2.31655
C         -1.87151        1.72171       -1.43081
C         -1.73046        1.71892        1.06408
C         -1.62390        3.85963       -0.14534
H         -1.60809        0.65829       -1.45165
H         -2.97751        1.81587       -1.37036
H         -1.55538        2.19635       -2.38191
H         -1.28599        2.19978        1.96225
H         -2.83876        1.82145        1.12910
H         -1.47218        0.65017        1.07163
H         -1.13226        4.38242        0.70206
H         -1.45265        4.41294       -1.07940
H         -2.72396        3.93564       -0.00229
Mg        -0.48422        3.94229       -4.23015
C          0.90347       -1.15773       -3.15780
C         -1.22171       -1.74716       -2.45317
O          0.08952       -1.34612       -1.99745
C          0.39719       -0.14278       -4.19670
C         -2.12165       -2.23618       -1.35755
H          1.85761       -0.75200       -2.82941
H          1.09703       -2.13957       -3.66266
H         -1.74890       -0.91732       -2.96280
H         -1.13836       -2.61367       -3.15348
H         -2.27033       -1.43737       -0.60125
H         -3.11355       -2.50509       -1.77873
H         -1.69490       -3.17004       -0.95458
H          0.17127        0.80679       -3.70858
H          1.18548        0.02884       -4.96021
H         -0.51470       -0.47725       -4.73006
C          7.33347        1.63362        1.55766
C          6.88465        2.35603        0.47646
C          5.55774        2.02071        0.27079
C          5.19146        1.11841        1.18739
N          6.27263        0.83186        2.05229
C          3.80856        0.49355        1.31798
N          3.33910       -0.27158        0.12428
C          4.12982       -1.53109       -0.14646
H          7.48489        3.05644       -0.08649
H          8.33014        1.66924        1.98515
H          4.91395        2.41342       -0.49931
H          3.09868        1.32171        1.50458
H          3.78155       -0.14501        2.22793
C          4.22245       -2.46288        1.08344
C          3.42426       -2.29163       -1.26533
C          5.56892       -1.25069       -0.67001
H          3.22029       -2.66186        1.51103
H          4.68250       -3.43781        0.79166
H          4.88700       -2.04008        1.86453
H          3.53903       -1.71987       -2.20252
H          3.90550       -3.27343       -1.45897
H          2.35825       -2.45897       -1.00816
H          5.54854       -0.55822       -1.53918
H          6.24955       -0.84257        0.09435
H          6.05617       -2.19575       -1.00274
