81
speciation784.ct
Na         4.45423       -2.33868        3.55930
Mg         2.27784       -0.36662       -2.02158
C          3.61601        2.55430       -1.57597
C          2.30248        2.06789        0.27146
O          2.64224        1.62589       -1.07782
C          4.24840        2.14926       -2.88399
C          1.73746        3.50082        0.41413
H          3.13162        3.53046       -1.79335
H          4.44802        2.71631       -0.85193
H          1.55162        1.44487        0.74758
H          3.15834        2.00439        0.96253
H          0.82157        3.64239       -0.19168
H          1.48069        3.68716        1.48185
H          2.48678        4.27844        0.15465
H          3.46964        2.08487       -3.66708
H          4.97142        2.94473       -3.17814
H          4.80301        1.19864       -2.77506
H         -1.90771       -4.05689       -0.55333
C         -0.46718       -5.41879       -1.40295
C         -1.36500       -4.20324       -1.51213
C          0.47662       -5.24575       -0.21977
H         -1.09572       -6.32039       -1.23583
H          0.10119       -5.53992       -2.35057
H          1.06648       -4.32754       -0.38142
H         -0.10371       -5.11607        0.71891
C          1.38809       -6.45782       -0.06749
H         -2.11889       -4.36201       -2.31159
H          0.78559       -7.36935        0.12640
H          1.98094       -6.61421       -0.99204
H          2.07851       -6.29812        0.78745
C          3.24663       -3.39198       -1.85982
C          3.64896       -4.36861       -0.95365
C          3.57073       -3.80281        0.29109
C          3.15662       -2.49703        0.07137
N          2.96387       -2.21864       -1.22905
C          3.05530       -1.46870        1.10366
N          4.37646       -1.27426        1.71755
C          5.55606       -0.90885        0.86517
H          3.96426       -5.38604       -1.17005
H          3.19791       -3.54593       -2.92728
H          3.82318       -4.26468        1.23970
H          2.31395       -1.77963        1.86689
H          2.70731       -0.53464        0.64497
C          5.25192        0.32203        0.03074
C          6.69995       -0.57994        1.81495
C          6.05942       -2.00983       -0.10735
H          5.00536        1.14683        0.71310
H          6.11958        0.64000       -0.58187
H          4.42652        0.09335       -0.67062
H          6.98501       -1.48798        2.38504
H          7.58079       -0.21964        1.23981
H          6.38744        0.21449        2.52476
H          6.22859       -2.97607        0.40617
H          5.40419       -2.15339       -0.98114
H          7.01090       -1.68984       -0.58366
Mg        -0.48924       -2.42524       -1.99518
C          3.67120       -0.41953       -4.87200
C          3.10079       -0.50001       -6.13952
C          1.74938       -0.57298       -5.96210
C          1.54250       -0.54988       -4.59573
N          2.71420       -0.43147       -3.93766
C          0.21511       -0.64217       -3.93207
N          0.36506       -0.69081       -2.46639
C         -0.65337        0.11373       -1.73650
H          3.61584       -0.49707       -7.09698
H          4.72717       -0.34601       -4.67633
H          0.98155       -0.64479       -6.72319
H         -0.30224       -1.56154       -4.26253
H         -0.38234        0.22106       -4.29446
C         -2.10302       -0.32943       -2.06174
C         -0.44540       -0.16255       -0.25210
C         -0.52308        1.62944       -2.04374
H         -2.26732       -1.39412       -1.79471
H         -2.82995        0.27356       -1.47387
H         -2.35063       -0.20317       -3.13424
H          0.61331       -0.08753       -0.03977
H         -1.05281        0.52007        0.38377
H         -0.69161       -1.21241        0.00527
H          0.50743        1.98674       -1.93217
H         -0.84071        1.88433       -3.07499
H         -1.18128        2.22366       -1.37494
