83
speciation309.ct
Na         1.20920        0.18688        0.14301
Mg        -1.70332       -1.31741        0.07464
C          1.93815        3.36923        0.11322
C         -0.40260        3.08993       -0.23033
O          0.85366        2.43796       -0.01073
C          1.74023        4.46649        1.18308
C         -0.49431        3.92080       -1.53372
H          2.83388        2.80439        0.41541
H          2.19516        3.83235       -0.86572
H         -0.66909        3.72455        0.63891
H         -1.20231        2.32976       -0.25531
H         -0.42847        3.27316       -2.43095
H         -1.47037        4.45486       -1.56196
H          0.28438        4.70965       -1.60327
H          1.49511        4.01063        2.16429
H          2.66660        5.07169        1.29014
H          0.93988        5.18389        0.90026
C         -2.60094       -3.66675       -1.62933
C         -1.94715       -4.83392       -1.97564
C         -0.69688       -4.77626       -1.38546
C         -0.64547       -3.56809       -0.69811
N         -1.79169       -2.92209       -0.84109
C          0.49552       -3.03256        0.13094
N          0.11868       -1.82797        0.95494
C          0.24290       -2.15285        2.44455
H         -2.34751       -5.63223       -2.58973
H         -3.59761       -3.38107       -1.92889
H          0.06884       -5.53717       -1.44316
H          1.36791       -2.81156       -0.51095
H          0.76724       -3.90688        0.74321
C          1.66876       -2.63317        2.84588
C          0.02609       -0.88847        3.30523
C         -0.74067       -3.28257        2.91199
H          2.40029       -1.83735        2.68667
H          1.70521       -2.86586        3.93441
H          2.01418       -3.56045        2.35217
H         -0.99017       -0.51195        3.32441
H          0.25492       -1.09679        4.37499
H          0.69191       -0.06936        2.96249
H         -1.80521       -3.09233        2.71417
H         -0.51960       -4.26623        2.45211
H         -0.65900       -3.43189        4.01198
Na        -5.05230        0.10429       -4.76187
C          4.19094       -0.42635        0.64274
C          3.89630        0.60658       -1.42714
O          3.26368       -0.11241       -0.38730
C          4.56606        0.77462        1.51088
C          2.93326        0.80202       -2.58231
H          3.72943       -1.19415        1.26874
H          5.09887       -0.93224        0.24451
H          4.23297        1.60784       -1.08779
H          4.76258        0.03010       -1.82851
H          2.06499        1.40743       -2.25289
H          3.45499        1.34014       -3.40396
H          2.58380       -0.18126       -2.95928
H          3.65300        1.26893        1.89791
H          5.17626        0.43528        2.37402
H          5.17591        1.50239        0.93661
C         -2.01869        0.50843       -4.39726
C         -0.97690        0.55424       -3.49960
C         -1.51973        0.34495       -2.25310
C         -2.87990        0.17989       -2.44476
N         -3.17950        0.27447       -3.75726
C         -3.90360       -0.08324       -1.37102
N         -3.27663       -0.09535       -0.04126
C         -4.14197       -0.53829        1.07304
H          0.07086        0.71556       -3.72341
H         -1.92882        0.63795       -5.46850
H         -0.97801        0.31364       -1.31886
H         -4.36918       -1.05249       -1.61788
H         -4.67174        0.72116       -1.41640
C         -4.76996       -1.93329        0.83007
C         -3.22035       -0.64043        2.26116
C         -5.22713        0.49155        1.40694
H         -3.99715       -2.67433        0.54613
H         -5.25919       -2.30666        1.75611
H         -5.55070       -1.90106        0.04372
H         -2.78731        0.35752        2.48682
H         -3.70946       -1.05369        3.16757
H         -2.40851       -1.30282        1.94991
H         -4.76109        1.47688        1.62616
H         -5.94060        0.60672        0.56914
H         -5.79084        0.16472        2.30920
