66
speciation226.ct
Na         1.08625       -0.15378       -1.90153
Mg         8.00050       -2.16367        0.96785
H         10.35577       -1.77491       -0.25808
C         10.86785       -2.70554        1.63099
C         10.04435       -1.71823        0.80668
C         10.63555       -4.13740        1.13660
H         11.94703       -2.44851        1.54257
H         10.56643       -2.62295        2.69716
H          9.55533       -4.38482        1.22331
H         10.93707       -4.21958        0.06897
C         11.44147       -5.14863        1.94877
H         10.22702       -0.68329        1.16795
H         12.52995       -4.95205        1.84371
H         11.16180       -5.09538        3.02231
H         11.23059       -6.17448        1.57846
C          6.46684       -0.95842       -2.02047
C          7.04246        0.22696       -2.41490
C          6.11089        1.22180       -2.16883
C          5.00690        0.58963       -1.62977
N          5.23619       -0.71870       -1.53653
C          3.69956        1.19830       -1.18760
N          2.78913        0.14898       -0.65554
C          2.36954        0.29148        0.75922
H          8.03182        0.33974       -2.83664
H          6.93054       -1.92952       -2.08867
H          6.23273        2.27657       -2.36245
H          3.21321        1.67693       -2.06079
H          3.92421        1.98776       -0.44692
C          1.57277        1.58150        1.00451
C          1.44348       -0.89286        1.11166
C          3.60207        0.26146        1.66650
H          0.67873        1.60587        0.34868
H          1.24129        1.62634        2.06623
H          2.18473        2.48369        0.81387
H          1.95281       -1.85563        0.99014
H          1.09527       -0.83469        2.16753
H          0.55057       -0.91099        0.45272
H          4.23113       -0.58046        1.33180
H          4.23516        1.16471        1.57479
H          3.31593        0.15817        2.73797
Mg         3.76408       -1.54322       -0.79932
C          2.35649       -4.04734       -0.34018
C          2.58699       -5.33906        0.07639
C          3.94761       -5.45227        0.28516
C          4.48228       -4.21140        0.01216
N          3.51370       -3.36801       -0.37834
C          5.91750       -3.81214        0.18590
N          6.08245       -2.65795        1.10026
C          5.72796       -2.84084        2.54026
H          1.83960       -6.10174        0.23271
H          1.39400       -3.60947       -0.57195
H          4.48112       -6.32203        0.63911
H          6.54273       -4.66542        0.51011
H          6.30241       -3.53386       -0.81003
C          6.50458       -4.00383        3.17055
C          6.12945       -1.55866        3.30631
C          4.21535       -3.08619        2.76432
H          7.59596       -3.81061        3.11957
H          6.20627       -4.10884        4.23585
H          6.27106       -4.96323        2.67040
H          5.62900       -0.64931        2.94454
H          5.86996       -1.65346        4.38290
H          7.21824       -1.36742        3.21796
H          3.59693       -2.31830        2.29912
H          3.87425       -4.05943        2.39118
H          3.96094       -3.09259        3.84064
