96
speciation1772.ct
Na         1.67169       -1.92626       -0.01054
Mg         3.43780        0.11716       -2.04376
C          1.24206       -1.40061       -3.50382
C          2.37631       -0.17435       -5.08285
O          2.16317       -0.32072       -3.67422
C         -0.20150       -1.03897       -4.03691
C          3.48260        0.78360       -5.44749
H          1.55755       -2.34336       -3.99649
H          1.16089       -1.65027       -2.44551
H          2.56275       -1.14372       -5.61528
H          1.48029        0.30933       -5.52135
H          4.49384        0.37296       -5.29042
H          3.40601        1.02723       -6.52905
H          3.32799        1.69974       -4.87117
H         -0.24013       -0.92497       -5.14216
H         -0.94082       -1.83822       -3.79680
H         -0.60023       -0.08953       -3.62192
H          9.02168       -1.20311        0.52138
C          7.97126        0.67732        0.77526
C          8.31365       -0.55126       -0.02993
C          7.23891        0.29105        2.05847
H          8.89937        1.24044        1.01112
H          7.30889        1.32568        0.16409
H          6.98102        1.22713        2.59475
H          6.30489       -0.24031        1.78785
C          8.07274       -0.59712        2.98354
H          8.83766       -0.25473       -0.96514
H          8.24174       -1.60000        2.53869
H          9.05385       -0.12025        3.19495
H          7.53030       -0.75086        3.93987
C          3.12749       -3.02038        2.63136
C          3.97285       -2.35609        3.50823
C          4.10354       -1.06398        3.03192
C          3.33251       -0.99871        1.87371
N          2.74244       -2.17456        1.65003
C          3.16947        0.23919        0.98733
N          2.22419        0.08687       -0.17050
C          0.85555        0.68756        0.11638
H          4.44386       -2.76465        4.39572
H          2.82132       -4.05356        2.71857
H          4.68015       -0.27189        3.47614
H          4.17010        0.50553        0.59485
H          2.87170        1.06372        1.66073
C          0.81079        2.21806        0.36333
C         -0.03377        0.42793       -1.09070
C          0.18163        0.03002        1.34746
H          0.95513        2.77180       -0.55794
H         -0.21150        2.53531        0.65862
H          1.49575        2.58346        1.15054
H         -0.23361       -0.65348       -1.19902
H         -1.01975        0.93017       -1.00407
H          0.48492        0.83870       -1.98134
H          0.07751       -1.06531        1.22986
H          0.73540        0.24421        2.28344
H         -0.84961        0.43216        1.47500
Mg         6.53059       -1.65262       -0.46693
C          3.35398        3.01992       -1.65503
C          5.01126        2.86030       -3.28218
O          4.25399        2.12552       -2.28019
C          2.23193        3.56089       -2.57623
C          6.04557        3.85021       -2.71687
H          2.97733        2.45666       -0.80846
H          3.86070        3.85391       -1.13717
H          5.56856        2.21900       -3.98062
H          4.36199        3.40698       -3.98114
H          6.89408        3.31372       -2.24995
H          6.42876        4.46952       -3.55728
H          5.62789        4.57115       -1.98967
H          1.67752        2.72315       -3.04508
H          1.53614        4.20576       -2.00367
H          2.60064        4.24302       -3.36442
C          6.53209       -4.51609        0.70668
C          5.61090       -5.53537        0.54792
C          4.63113       -5.05375       -0.30345
C          5.01039       -3.76391       -0.63451
N          6.14137       -3.44228       -0.00696
C          4.27499       -2.81462       -1.55514
N          4.98849       -1.52000       -1.73374
C          5.97090       -1.50253       -2.86140
H          5.64513       -6.51821        1.00364
H          7.42635       -4.55964        1.31581
H          3.75281       -5.58672       -0.63646
H          3.30773       -2.62497       -1.09253
H          4.05675       -3.31736       -2.51294
C          5.37671       -1.93351       -4.21060
C          6.35388       -0.05123       -2.92108
C          7.24642       -2.36665       -2.66836
H          4.37467       -1.52313       -4.30909
H          6.03144       -1.59562       -5.04630
H          5.28198       -3.03404       -4.28980
H          6.66237        0.33925       -1.92862
H          7.11670        0.19614       -3.68624
H          5.40031        0.39482       -3.17628
H          7.83218       -2.18306       -1.76434
H          7.00069       -3.44513       -2.67464
H          7.94931       -2.16967       -3.50820
