96
speciation1626.ct
Na         6.00787        2.67451        2.89239
Mg         1.28370        1.88422       -1.66363
C          0.59056       -0.23137        0.54251
C          2.25851       -1.13511       -0.88791
O          1.29720       -0.09115       -0.70519
C          1.40346       -0.42794        1.84726
C          1.72539       -2.57627       -0.68335
H          0.02315        0.67491        0.71276
H         -0.18193       -1.02658        0.45748
H          2.56817       -1.11554       -1.94128
H          3.14873       -0.98055       -0.24229
H          0.85439       -2.77937       -1.33731
H          2.53189       -3.30344       -0.91990
H          1.42378       -2.79037        0.36060
H          2.13347        0.36044        2.03387
H          0.70480       -0.39102        2.71063
H          1.94625       -1.38670        1.89960
H         -1.58113        2.03123       -1.07191
C         -1.00624        4.09312       -1.06208
C         -0.69792        2.63604       -0.78581
C         -2.20569        4.60946       -0.23349
H         -0.11928        4.67999       -0.79599
H         -1.21496        4.15473       -2.14606
H         -3.06561        3.92644       -0.40190
H         -1.97367        4.59624        0.85710
C         -2.71387        6.00358       -0.64389
H         -0.67753        2.54957        0.31420
H         -3.70873        6.06214       -0.20924
H         -2.81477        6.06809       -1.75705
H         -2.31645        6.92304       -0.15388
C          3.19993        3.48335        3.85419
C          1.86163        3.55701        3.54736
C          1.72484        3.04983        2.27529
C          2.99086        2.71541        1.83870
N          3.89192        2.96719        2.82118
C          3.34188        2.18863        0.45310
N          2.75461        2.96547       -0.68412
C          3.27242        4.43291       -0.60782
H          1.06444        3.94310        4.17204
H          3.64161        3.79486        4.79704
H          0.81783        2.98451        1.71739
H          4.45022        2.13900        0.39347
H          3.06158        1.15386        0.33904
C          4.81844        4.56482       -0.54409
C          2.87788        5.23454       -1.82809
C          2.67192        5.28469        0.54343
H          5.31722        4.08480       -1.41058
H          5.11197        5.63901       -0.56795
H          5.24162        4.16460        0.39712
H          1.78680        5.25533       -1.87629
H          3.16223        6.30575       -1.75687
H          3.50567        4.86352       -2.63466
H          1.56947        5.20330        0.59085
H          3.12767        5.08975        1.52263
H          2.91422        6.36452        0.43367
Mg         2.22525        1.35018       -2.32108
C          5.21783        1.08048       -2.25308
C          4.56160       -0.51457       -3.87033
O          4.09822        0.40832       -2.85273
C          6.30522        1.68999       -3.17824
C          5.28333       -1.73448       -3.29465
H          4.81367        1.94296       -1.72697
H          5.69444        0.42662       -1.49480
H          3.75945       -0.93971       -4.47975
H          5.17647       -0.00062       -4.64057
H          4.57524       -2.34425       -2.69695
H          5.66978       -2.35807       -4.12980
H          6.14920       -1.45303       -2.66424
H          5.86737        2.42274       -3.88823
H          7.05910        2.22142       -2.55609
H          6.88286        0.92327       -3.73702
C         -1.20002       -0.01441       -2.58445
C         -1.87505       -0.25439       -3.77273
C         -0.97809       -0.01813       -4.78426
C          0.16075        0.39424       -4.14786
N          0.08322        0.45494       -2.80753
C          1.42982        0.75155       -4.66598
N          1.75687        2.03944       -4.03677
C          1.23819        3.12613       -4.96088
H         -2.91685       -0.57565       -3.94980
H         -1.68378       -0.10671       -1.61727
H         -1.14086       -0.09885       -5.85683
H          1.44224        0.66515       -5.76633
H          2.04176       -0.01563       -4.25353
C         -0.28826        3.13291       -5.28071
C          1.50263        4.40995       -4.31218
C          2.03578        3.14302       -6.31015
H         -0.90908        3.20351       -4.36270
H         -0.52497        4.03321       -5.89646
H         -0.61444        2.28147       -5.89908
H          2.58701        4.41731       -4.24948
H          1.20404        5.29827       -4.89691
H          0.90885        4.35390       -3.38542
H          3.12691        3.24100       -6.11613
H          1.90123        2.25536       -6.95235
H          1.71818        4.00237       -6.93697
