110
speciation2587.ct
Na         1.19232       -1.82385       -1.39194
Mg         2.15521        4.79607       -0.93386
C          4.87086        5.79813       -0.22161
C          3.89931        7.23356       -1.79860
O          3.86804        5.93216       -1.20634
C          4.70047        6.81223        0.91300
C          5.29872        7.79101       -2.20569
H          4.83068        4.76699        0.15781
H          5.88640        5.84875       -0.67149
H          3.39974        7.14678       -2.75138
H          3.35955        7.96299       -1.16226
H          5.78628        7.13719       -2.96131
H          5.18386        8.80360       -2.64753
H          5.99729        7.92290       -1.35179
H          3.72637        6.62437        1.36393
H          5.51404        6.70341        1.65629
H          4.69784        7.86674        0.59354
H          1.69818        4.89417       -3.72564
C          0.27790        6.45631       -3.66083
C          0.97828        5.23575       -2.96534
C          1.16819        7.64267       -4.05382
H         -0.21181        6.09365       -4.58895
H         -0.55181        6.87189       -3.06260
H          0.52140        8.42734       -4.50102
H          1.61030        8.11019       -3.15319
C          2.21279        7.26483       -5.11215
H          0.17732        4.47888       -2.87689
H          2.93417        6.50564       -4.75075
H          1.70433        6.84686       -6.00519
H          2.78176        8.16847       -5.41524
C         -0.88595        0.27414       -2.09965
C         -1.29326        1.58580       -2.03426
C         -0.31576        2.25618       -1.33526
C          0.65137        1.34002       -1.01071
N          0.29549        0.11146       -1.47599
C          1.90334        1.65803       -0.18126
N          2.87513        2.66127       -0.73797
C          3.57845        2.11868       -1.97237
H         -2.20538        1.99628       -2.44844
H         -1.43558       -0.52978       -2.58372
H         -0.29947        3.28719       -1.06485
H          1.57306        2.04915        0.78249
H          2.41796        0.70488        0.05315
C          2.65435        1.98006       -3.20484
C          4.69521        3.09569       -2.33951
C          4.21928        0.71819       -1.77171
H          2.13410        2.91308       -3.40204
H          3.24982        1.73735       -4.11457
H          1.91458        1.17195       -3.10492
H          5.41762        3.18041       -1.49600
H          5.25685        2.74473       -3.23437
H          4.27300        4.07860       -2.59337
H          4.88629        0.69793       -0.89310
H          3.45394       -0.08387       -1.68093
H          4.82732        0.43354       -2.66539
Na         0.19283        1.76334        2.41820
Mg         4.49355        2.86942        0.75345
C          5.88899        0.70303        1.84594
C          7.46997        2.40576        1.48909
O          6.15547        1.92128        1.17769
C          5.62810        0.87346        3.33924
C          7.86468        3.62871        0.66476
H          4.96834        0.27616        1.40169
H          6.69488       -0.03913        1.66387
H          7.58097        2.67583        2.55867
H          8.23075        1.62763        1.25752
H          7.19371        4.48402        0.87123
H          8.89749        3.93880        0.94778
H          7.85888        3.39208       -0.41837
H          4.73979        1.50093        3.45151
H          5.37743       -0.09694        3.80582
H          6.49846        1.30300        3.88064
H          5.95713        3.99863        2.91367
C          4.23737        3.94848        4.15925
C          4.87457        3.94846        2.76151
C          4.51386        5.25085        4.94282
H          3.18115        3.85802        3.99717
H          4.49957        3.08813        4.79674
H          4.25654        6.15060        4.33523
H          3.86846        5.26904        5.84759
C          5.96323        5.32799        5.40370
H          4.59303        4.90043        2.36884
H          6.19720        4.43015        6.01419
H          6.65365        5.37808        4.53854
H          6.11442        6.23416        6.02558
C          0.49597        3.25661        4.99069
C          0.83906        4.41924        5.65540
C          1.17328        5.33932        4.68349
C          1.05782        4.68499        3.43998
N          0.60480        3.42221        3.65379
C          1.60633        5.25898        2.14109
N          0.83967        5.23940        0.87316
C         -0.36234        6.13563        0.87452
H          0.88949        4.55531        6.73202
H          0.21595        2.33273        5.47360
H          1.55412        6.33508        4.87699
H          2.48311        4.63986        1.92929
H          1.95577        6.27963        2.36877
C         -0.03672        7.63438        1.14049
C         -0.97415        6.08386       -0.50460
C         -1.43905        5.62494        1.85425
H          0.54993        8.07591        0.30365
H         -0.98583        8.21344        1.21182
H          0.50518        7.81971        2.08373
H         -1.32852        5.07838       -0.78341
H         -1.82635        6.78586       -0.62688
H         -0.15179        6.40288       -1.13679
H         -1.65217        4.55157        1.65027
H         -1.14443        5.74594        2.91007
H         -2.38705        6.19167        1.72461
