96
speciation1038.ct
Na        -2.12447        2.11185        1.87815
Mg         1.75410       -2.06307        3.94578
C         -4.23880        3.82372        0.57271
C         -2.00247        4.56363        0.16628
O         -2.89733        3.90070        1.04810
C         -4.41103        3.28452       -0.85546
C         -2.25673        6.07175        0.08418
H         -4.78224        3.13539        1.25013
H         -4.74767        4.80680        0.68055
H         -0.97723        4.43139        0.56814
H         -1.99136        4.11466       -0.84477
H         -2.14633        6.53771        1.08542
H         -1.51737        6.53104       -0.60680
H         -3.26901        6.29110       -0.31340
H         -3.88785        2.31232       -0.96381
H         -5.49099        3.14164       -1.07045
H         -4.03140        4.00624       -1.60962
H          0.14299       -3.85878        3.09776
C          0.92281       -3.24784        1.15504
C          0.53101       -2.94767        2.60510
C          1.87204       -4.42167        0.93980
H         -0.01872       -3.46702        0.60390
H          1.41426       -2.36390        0.70521
H          1.99375       -4.52610       -0.16262
H          2.86612       -4.21396        1.38453
C          1.30907       -5.72971        1.48349
H         -0.29394       -2.21717        2.63285
H          1.28742       -5.70945        2.59217
H          0.28155       -5.90128        1.09469
H          1.95877       -6.56923        1.16496
C          3.77352       -0.00140        3.67021
C          4.03125        1.31645        3.38130
C          2.81662        1.89041        3.04178
C          1.88555        0.88202        3.09598
N          2.47177       -0.27870        3.49965
C          0.41889        1.01928        2.79141
N          0.06373        1.68497        1.50511
C          0.43424        1.01526        0.21722
H          4.99286        1.80676        3.42849
H          4.51372       -0.73899        3.98442
H          2.66322        2.92166        2.75873
H         -0.00714        1.65543        3.59380
H         -0.06433        0.03953        2.89327
C         -0.28468       -0.32455        0.06835
C         -0.03097        1.88841       -0.95833
C          1.96882        0.84308        0.05356
H         -1.38358       -0.19882        0.01964
H          0.06045       -0.86607       -0.84261
H         -0.08480       -0.92585        0.94152
H          0.42722        2.89739       -0.91086
H          0.26191        1.42129       -1.92775
H         -1.13527        1.98409       -0.95661
H          2.47487        1.83504        0.07868
H          2.42955        0.17920        0.80246
H          2.20965        0.37162       -0.92349
Mg         0.97416        3.40164        1.54141
C         -3.08857       -0.50204        3.04114
C         -4.61762        1.24069        3.58761
O         -3.27486        0.89322        3.25401
C         -4.03633       -1.14801        2.02356
C         -5.06195        0.69603        4.95963
H         -2.07836       -0.62959        2.63020
H         -3.08626       -1.05699        4.00482
H         -4.68760        2.34571        3.64918
H         -5.33231        0.93767        2.79655
H         -4.44019        1.12534        5.77335
H         -6.12295        0.97107        5.14627
H         -5.00438       -0.41128        5.01028
H         -4.01180       -0.57907        1.07109
H         -3.71113       -2.19195        1.83129
H         -5.07566       -1.20063        2.40928
C          4.24100       -3.82003        4.11561
C          4.46984       -4.86653        4.98955
C          3.36234       -4.94788        5.81642
C          2.51613       -3.93381        5.42107
N          3.05254       -3.26004        4.39563
C          1.15572       -3.57198        6.00198
N          0.74839       -2.19570        5.60005
C          0.57615       -1.23110        6.71740
H          5.33796       -5.51104        5.00767
H          4.89173       -3.50337        3.31097
H          3.19620       -5.66030        6.61291
H          1.20861       -3.69963        7.09810
H          0.41246       -4.30978        5.63681
C          1.87065       -1.06578        7.54322
C          0.20165        0.14854        6.14924
C         -0.60568       -1.67928        7.61034
H          2.70244       -0.73452        6.88533
H          1.72584       -0.30288        8.33896
H          2.17736       -2.00260        8.04666
H         -0.71771        0.09094        5.52733
H          0.01245        0.87254        6.97402
H          1.02961        0.55980        5.54801
H         -1.52944       -1.76936        6.99600
H         -0.42740       -2.65798        8.09597
H         -0.79752       -0.93959        8.41680
