95
speciation1205.ct
Na         1.02807       -0.09562       -0.00832
Mg         4.02707       -1.73322       -0.96678
C         -1.71505        0.31759        1.26510
C         -1.73878       -1.43524       -0.23213
O         -1.29193       -0.09562       -0.00832
C         -1.89965       -0.67691        2.44327
C         -3.26958       -1.57438       -0.36102
H         -0.86101        0.90351        1.58241
H         -2.66064        0.88514        1.12145
H         -1.34623       -1.80028       -1.17671
H         -1.33283       -2.13043        0.53805
H         -3.62193       -1.08349       -1.28834
H         -3.53192       -2.65440       -0.39895
H         -3.83038       -1.13564        0.48855
H         -0.91837       -1.11433        2.71826
H         -2.30858       -0.13590        3.31906
H         -2.64047       -1.47491        2.27301
H          6.36852       -0.75327       -1.51556
C          6.41666       -2.39089       -2.91515
C          6.04474       -1.81430       -1.54774
C          5.73874       -1.61152       -4.04826
H          7.52140       -2.31821       -3.03679
H          6.12386       -3.46097       -2.96332
H          4.63584       -1.69161       -3.94231
H          6.02697       -0.53786       -3.99429
C          6.15231       -2.15280       -5.41673
H          6.58986       -2.36413       -0.75139
H          7.24938       -2.04657       -5.56121
H          5.87589       -3.22431       -5.50949
H          5.63605       -1.58185       -6.21756
C          4.33855        4.56891       -0.59060
C          5.54017        3.92855       -0.84837
C          5.26919        2.57813       -0.88004
C          3.92038        2.45206       -0.63855
N          3.33787        3.67121       -0.43894
C          3.10774        1.17740       -0.74556
N          3.39807       -0.09562       -0.00832
C          3.72529       -0.16375        1.44016
H          6.49401        4.40723       -1.03002
H          4.20675        5.64140       -0.54211
H          5.98250        1.79217       -1.09412
H          3.10698        0.90711       -1.82585
H          2.08815        1.52637       -0.51707
C          2.60331        0.43760        2.30218
C          3.85775       -1.65581        1.81212
C          5.07033        0.50325        1.77762
H          1.64420       -0.09320        2.12699
H          2.84245        0.31772        3.38247
H          2.47173        1.51545        2.08515
H          4.66181       -2.14033        1.21458
H          4.11146       -1.78929        2.88630
H          2.90437       -2.18934        1.63119
H          5.89532        0.06198        1.17860
H          5.03555        1.59589        1.62156
H          5.30951        0.34247        2.85418
Na         1.18753        4.47108       -0.09281
Mg         0.06679        2.44984        0.55497
H          3.35634       -4.42095       -1.42752
C          1.56353       -3.33532       -0.84602
C          3.05063       -3.64540       -0.69841
C          1.28310       -2.73249       -2.22727
H          0.93680       -4.24074       -0.67670
H          1.28971       -2.59060       -0.06813
H          0.24832       -2.38425       -2.27791
H          1.94114       -1.85262       -2.39070
C          1.42390       -3.74031       -3.36097
H          3.23157       -4.07700        0.31045
H          2.46189       -4.11260       -3.44848
H          0.73192       -4.59463       -3.19233
H          1.14652       -3.24574       -4.31467
C         -0.90826        6.87209        0.63974
C         -2.20561        7.22647        0.95942
C         -2.96279        6.08581        0.89391
C         -2.08179        5.08080        0.56179
N         -0.81514        5.54347        0.38168
C         -2.43862        3.67494        0.56561
N         -1.54907        3.00863        1.51102
C         -1.65457        3.16690        2.99687
H         -2.56960        8.19749        1.25355
H         -0.05868        7.53574        0.62163
H         -4.01198        5.97317        1.12838
H         -3.51267        3.48516        0.82107
H         -2.27345        3.23193       -0.44704
C         -3.08423        2.81821        3.47506
C         -0.58845        2.27774        3.69923
C         -1.30548        4.58906        3.43219
H         -3.40742        1.81670        3.14396
H         -3.14805        2.85573        4.58517
H         -3.82151        3.54358        3.07280
H          0.41517        2.47099        3.26406
H         -0.55681        2.47376        4.78734
H         -0.73295        1.19891        3.65302
H         -0.31150        4.87360        3.02557
H         -2.07596        5.31036        3.12563
H         -1.27120        4.64702        4.54244
