95
speciation1675.ct
Na         0.08576        1.46115       -3.89424
Mg         6.96279       -3.58594       -1.43993
C          9.11167       -3.15561       -0.22841
C          8.52627       -5.40254        0.25801
O          8.06272       -4.06514        0.05537
C          9.98916       -3.55023       -1.41984
C          9.36785       -5.55369        1.53263
H          8.61808       -2.21299       -0.52362
H          9.69360       -2.90184        0.67643
H          7.65581       -6.06935        0.42083
H          9.06607       -5.80501       -0.62410
H          8.75866       -5.28962        2.42297
H          9.70515       -6.60790        1.63588
H         10.27350       -4.91618        1.50649
H          9.35131       -3.83026       -2.28498
H         10.62930       -2.69154       -1.70366
H         10.65960       -4.39579       -1.15772
H          6.75015       -6.28985       -1.62367
C          4.86105       -5.94994       -2.54558
C          5.92712       -5.54690       -1.52804
C          5.38253       -5.88710       -3.98262
H          4.53596       -6.99907       -2.33210
H          3.98353       -5.28431       -2.42827
H          5.72695       -4.85542       -4.19856
H          6.23807       -6.58754       -4.11085
C          4.28389       -6.26066       -4.98061
H          5.47433       -5.67619       -0.52235
H          3.94371       -7.30563       -4.81490
H          3.41758       -5.57526       -4.87027
H          4.67610       -6.17485       -6.01575
C         -2.45829        0.58648       -5.61781
C         -2.90671       -0.66724       -5.97984
C         -2.02119       -1.57716       -5.40998
C         -1.08235       -0.82924       -4.72327
N         -1.34755        0.47941       -4.86906
C          0.09170       -1.38235       -3.93050
N          0.83516       -0.33925       -3.16524
C          0.54298       -0.24724       -1.71518
H         -3.77289       -0.90027       -6.57250
H         -2.91100        1.53273       -5.89964
H         -2.07948       -2.65162       -5.47836
H          0.77748       -1.89126       -4.62926
H         -0.31268       -2.15817       -3.24859
C          0.88348       -1.57058       -0.98776
C          1.40561        0.89623       -1.15626
C         -0.94072        0.11205       -1.45604
H          1.75376       -2.06750       -1.45504
H          1.09424       -1.39969        0.08992
H          0.03634       -2.28824       -1.03421
H          1.13682        1.85790       -1.64463
H          1.24182        1.01310       -0.06224
H          2.48036        0.71303       -1.34111
H         -1.21264        1.06996       -1.94793
H         -1.62140       -0.67419       -1.84574
H         -1.13608        0.21575       -0.36669
Na         3.07625       -0.10228       -3.89892
Mg         8.29318       -0.46047       -2.28674
H         10.43557        0.34176       -3.39803
C         11.00547        1.00866       -1.40915
C          9.95438        0.70978       -2.46710
C         12.07997        1.98723       -1.93305
H         10.50201        1.44776       -0.52053
H         11.50208        0.06244       -1.10503
H         12.78898        2.19894       -1.10396
H         12.65089        1.51547       -2.76273
C         11.51075        3.31901       -2.43662
H          9.40072        1.64260       -2.69604
H         10.89269        3.16874       -3.35074
H         10.89199        3.80360       -1.65385
H         12.33914        4.00264       -2.71780
C          5.73535        1.14564       -5.41586
C          7.08456        1.02907       -5.66244
C          7.51001       -0.10492       -4.99682
C          6.39117       -0.62480       -4.36498
N          5.31733        0.13470       -4.63259
C          6.34203       -1.85892       -3.51717
N          6.67269       -1.60203       -2.11080
C          5.74113       -0.83930       -1.25791
H          7.68930        1.70084       -6.25980
H          5.08765        1.93012       -5.78575
H          8.51632       -0.49584       -4.97933
H          5.39924       -2.41865       -3.65270
H          7.13869       -2.52792       -3.91234
C          4.36363       -1.51328       -1.25052
C          6.32127       -0.84974        0.15695
C          5.63889        0.65105       -1.69202
H          4.46754       -2.58583       -0.97597
H          3.68803       -1.01920       -0.52324
H          3.90265       -1.46574       -2.25075
H          7.31870       -0.36508        0.15993
H          5.66219       -0.28827        0.85015
H          6.41606       -1.88799        0.52856
H          6.63435        1.01962       -2.04744
H          4.88396        0.82212       -2.46857
H          5.33238        1.31145       -0.85427
