139
speciation31.ct
C         -0.84908        2.13598       -0.86295
C          0.46902        2.94342       -0.94938
C          1.54141        2.25411       -1.77546
C          1.81975        0.91195       -1.12515
C          0.49286        0.07023       -0.96230
N         -0.65802        0.78339       -0.22239
C         -1.76495        2.93392       -0.01314
C         -1.56361        2.07051       -2.21194
C          0.24218       -0.48386       -2.39753
C          0.67209       -1.18197       -0.20975
H         -0.93981        1.73960       -3.03597
H         -2.45472        1.43579       -2.04334
H         -1.91709        3.05776       -2.56891
H         -1.96975        3.94092       -0.44674
H         -2.68714        2.36778       -0.03092
H         -1.34567        3.04267        1.00160
H          0.52293       -0.87911        0.82947
H         -0.15286       -1.86504       -0.45260
H          1.60221       -1.73947       -0.44700
H          1.04063       -1.21484       -2.66571
H         -0.65316       -1.07365       -2.42941
H          0.29677        0.20502       -3.24185
H          2.57532        0.35328       -1.72438
H          1.22735        2.15548       -2.82970
H          0.28841        3.95822       -1.36979
H          0.85038        3.02680        0.08080
H          2.47209        2.86583       -1.77627
H          2.36365        1.18589       -0.23180
Li        -0.59500        1.25538        2.26871
C         -4.96648       -1.19139        1.05193
C         -6.15777       -1.19496        0.12595
C         -6.20016        0.21596       -0.37694
C         -4.89011        0.79911        0.13645
O         -4.02930       -0.25569        0.55031
H         -5.25424       -0.88070        2.08282
H         -4.60058       -2.20293        1.10624
H         -7.10008       -1.58127        0.57440
H         -5.88568       -1.84057       -0.73604
H         -4.47997        1.49551       -0.60998
H         -5.15644        1.36387        1.05851
H         -6.22675        0.18843       -1.48587
H         -7.06471        0.80939       -0.00099
C         -2.84475       -0.60491       -3.67901
C         -4.29266       -0.48680       -4.05710
C         -4.79241       -1.85977       -3.68738
C         -3.63749       -2.43786       -2.83078
O         -2.79948       -1.36095       -2.44196
H         -2.37317        0.36374       -3.74592
H         -2.28545       -1.14833       -4.48333
H         -4.72504        0.25938       -3.35609
H         -4.51271       -0.15202       -5.09977
H         -3.96778       -3.10223       -2.01811
H         -3.01915       -3.08352       -3.51292
H         -5.74209       -1.72967       -3.13251
H         -4.96642       -2.49779       -4.58552
C         -1.36136        3.08873        4.90892
C         -1.87252        4.27003        5.81062
C         -3.34199        4.61356        5.71836
C         -3.62761        4.76315        4.23487
C         -3.33694        3.43569        3.46854
N         -1.81985        3.06665        3.49550
C          0.16659        3.32117        4.92087
C         -1.67948        1.73520        5.46355
C         -4.33433        2.34255        4.00215
C         -3.74049        3.67886        2.06400
H         -2.63465        1.24448        5.28307
H         -1.05971        1.14089        4.78410
H         -1.51447        1.62051        6.53647
H          0.57203        3.29117        5.96363
H          0.65716        2.56041        4.30651
H          0.42633        4.30878        4.51513
H         -3.10321        4.45247        1.59646
H         -3.65025        2.69478        1.62794
H         -4.80608        3.97529        1.95834
H         -5.38894        2.66766        3.82719
H         -4.18415        1.36612        3.50318
H         -4.35870        2.18006        5.08856
H         -4.70179        5.05186        4.11787
H         -3.99005        3.86695        6.21381
H         -1.63265        4.07218        6.89966
H         -1.36794        5.20474        5.54654
H         -3.54425        5.57198        6.24849
H         -3.01162        5.58597        3.81347
Li        -2.27008       -0.88626       -0.29262
C         -0.42840       -2.80057        1.98598
C         -0.41563       -4.23465        2.48420
C         -1.83480       -4.64700        2.31134
C         -2.51119       -3.39500        1.76079
O         -1.53600       -2.64350        1.05608
H         -0.56775       -2.10494        2.81237
H          0.61336       -2.70837        1.64046
H          0.20445       -4.85135        1.78880
H          0.01005       -4.39148        3.49839
H         -3.31996       -3.76071        1.11777
H         -2.87588       -2.78238        2.63010
H         -1.83971       -5.41983        1.51321
H         -2.30597       -5.06329        3.22889
C          0.37504        6.36082        1.06934
C          1.75519        5.74899        1.05216
C          2.28764        6.00907        2.44153
C          1.11250        6.71589        3.11279
O         -0.05507        6.36869        2.40686
H          0.41531        7.42473        0.72089
H         -0.33668        5.82860        0.40047
H          1.64093        4.66195        1.01335
H          2.39684        6.06531        0.20623
H          1.07362        6.52036        4.20292
H          1.26140        7.81603        3.00090
H          2.46417        5.03049        2.93863
H          3.22900        6.60701        2.47869
C          0.44394       -0.80555        5.04811
C          1.27880       -2.07387        5.37791
C          2.77960       -1.84521        5.23920
C          3.02420       -1.45554        3.81772
C          2.26453       -0.16410        3.37556
N          0.76484       -0.21057        3.65116
C         -1.05650       -1.29497        5.15180
C          0.78856        0.13963        6.26142
C          2.89407        1.15207        3.88486
C          2.54772       -0.10621        1.90343
H          1.84426        0.32167        6.44036
H          0.45561        1.15098        6.25988
H          0.43060       -0.31626        7.20937
H         -1.39486       -1.34473        6.20944
H         -1.79638       -0.72631        4.56051
H         -1.21365       -2.32789        4.78564
H          2.45649       -1.09891        1.43689
H          1.83789        0.65609        1.55870
H          3.60036        0.15809        1.65318
H          3.97662        1.18420        3.63497
H          2.44114        2.01266        3.34590
H          2.81694        1.32835        4.95478
H          4.11409       -1.35896        3.62762
H          3.20819       -1.08148        5.90864
H          1.05574       -2.43186        6.40860
H          1.00062       -2.89403        4.69571
H          3.31278       -2.79076        5.46409
H          2.66814       -2.32576        3.21045
Li        -0.88948        4.71030        2.83836
