152
speciation67.ct
C          0.98838        0.81488       -0.73952
C          1.49551       -0.63199       -0.58036
C          0.68593       -1.67689       -1.30565
C         -0.67745       -1.62828       -0.66777
C         -1.36682       -0.24375       -0.78991
N         -0.52704        0.96670       -0.34120
C          1.92651        1.70103        0.12601
C          1.44126        1.15808       -2.18537
C         -1.88024       -0.13897       -2.22977
C         -2.59051       -0.35350        0.09089
H          1.10042        0.45059       -2.95422
H          1.26429        2.21949       -2.41910
H          2.54702        1.05187       -2.29944
H          2.61586        2.31494       -0.47989
H          1.37881        2.32354        0.84422
H          2.73197        1.11439        0.62538
H         -2.26627       -0.35568        1.14356
H         -3.26626        0.45633       -0.13974
H         -3.16798       -1.28169       -0.11991
H         -2.63361       -0.92688       -2.44599
H         -2.38110        0.83353       -2.38623
H         -1.08590       -0.35371       -2.96042
H         -1.31506       -2.41629       -1.13186
H          0.67413       -1.54179       -2.40226
H          2.56021       -0.72678       -0.89722
H          1.40012       -0.86580        0.46147
H          1.13089       -2.68151       -1.14069
H         -0.56239       -1.89481        0.39646
Li        -0.91451        1.31245        2.09458
C         -1.92141        4.60840        3.51442
C         -1.04021        5.12803        4.60893
C         -1.04679        3.93039        5.52024
C         -1.90990        2.89923        4.77494
O         -1.74000        3.15510        3.39953
H         -2.96829        4.84838        3.84151
H         -1.93657        5.25236        2.64393
H         -0.01965        5.30104        4.20346
H         -1.44028        6.07116        5.04952
H         -1.59076        1.92239        5.06466
H         -2.99798        3.01798        5.04436
H         -0.00625        3.56171        5.53890
H         -1.38873        4.13937        6.55529
C         -4.71913        3.47051       -0.38376
C         -5.16952        4.22656        0.85564
C         -4.31652        3.58580        1.89199
C         -3.78572        2.34965        1.24799
O         -3.51770        2.77164       -0.08163
H         -5.50229        2.71197       -0.62897
H         -4.64847        4.19023       -1.18605
H         -6.26131        4.11940        1.01737
H         -4.90813        5.31364        0.81483
H         -2.88984        1.94520        1.74612
H         -4.56644        1.54712        1.28269
H         -3.43886        4.19778        1.80750
H         -4.69347        3.55839        2.93720
C         -1.39303       -1.30575        4.26625
C         -0.70950       -2.52615        4.90374
C          0.54676       -2.15863        5.70035
C          1.52228       -1.54999        4.72000
C          0.93961       -0.32196        3.97881
N         -0.39200       -0.60197        3.31799
C         -2.59611       -1.75884        3.42273
C         -2.03752       -0.49484        5.40359
C          0.94998        0.94305        4.85097
C          1.92047       -0.02598        2.88229
H         -1.35795       -0.06929        6.14848
H         -2.75761        0.26512        5.03120
H         -2.65989       -1.17719        6.02688
H         -3.29059       -2.38052        4.03472
H         -3.17382       -0.87580        3.07304
H         -2.30818       -2.31799        2.53093
H          2.05184       -0.93672        2.32207
H          1.45888        0.76674        2.30199
H          2.92748        0.27132        3.24295
H          1.99013        1.18008        5.16778
H          0.58179        1.80009        4.25140
H          0.39771        0.87226        5.78862
H          2.49050       -1.30787        5.21454
H          0.33466       -1.46987        6.53255
H         -1.40412       -3.10163        5.55484
H         -0.35141       -3.20441        4.10840
H          1.00951       -3.07969        6.12448
H          1.72986       -2.34638        3.98184
Li        -1.64783        2.83330       -1.08760
C          0.70771        5.21965       -0.82152
C          1.93818        5.20860        0.06817
C          1.39403        5.02871        1.43827
C         -0.05354        4.62046        1.12535
O         -0.24114        4.33558       -0.25444
H          0.25183        6.23490       -0.88714
H          1.10084        4.91692       -1.79280
H          2.46624        4.28584       -0.15720
H          2.68528        6.00792       -0.08060
H         -0.27841        3.76572        1.78122
H         -0.58674        5.57524        1.29995
H          1.99019        4.26241        1.98670
H          1.43549        5.96884        2.03627
C          1.91075       -4.58261        1.74284
C          3.08132       -4.54404        2.70119
C          3.86243       -3.34016        2.23292
C          3.06504       -2.87976        1.04251
O          1.71349       -3.27257        1.28102
H          2.13508       -5.22776        0.85882
H          1.03679       -4.98189        2.25364
H          2.69148       -4.32501        3.71655
H          3.63507       -5.50325        2.71854
H          3.27693       -1.81907        0.85100
H          3.41449       -3.39856        0.11551
H          3.77784       -2.55030        3.00939
H          4.93305       -3.50773        1.99897
C         -1.16852        3.11899       -4.38510
C         -1.31884        3.44672       -5.89402
C         -2.18674        4.63723       -6.13062
C         -3.52865        4.24293       -5.56426
C         -3.50543        3.96898       -4.00906
N         -2.37939        3.06420       -3.51737
C         -0.55317        1.76012       -4.40658
C         -0.23867        4.09036       -3.71136
C         -3.42107        5.31494       -3.27462
C         -4.90603        3.30726       -3.81844
H         -0.60648        5.12820       -3.72902
H         -0.25647        3.73881       -2.67051
H          0.78635        4.06171       -4.12974
H          0.45856        1.75431       -4.87178
H         -0.53345        1.55217       -3.36765
H         -1.19269        0.99848       -4.90430
H         -4.98926        2.35088       -4.39226
H         -5.22430        3.06194       -2.81631
H         -5.70793        3.97904       -4.22923
H         -4.35549        5.89404       -3.40901
H         -3.20213        5.16379       -2.20883
H         -2.59797        5.93186       -3.64863
H         -4.26683        5.03346       -5.81268
H         -1.77241        5.55642       -5.67712
H         -0.31749        3.60060       -6.35588
H         -1.77900        2.58668       -6.44048
H         -2.27235        4.80411       -7.22762
H         -3.85623        3.33219       -6.12677
Li         0.08088       -2.48625        2.19370
C         -1.74390       -5.02832        2.69666
C         -1.24582       -6.40927        2.31485
C         -0.98260       -6.27062        0.82774
C         -1.29059       -4.79700        0.54754
O         -1.14857       -4.11329        1.78377
H         -2.84968       -4.97546        2.56811
H         -1.55506       -4.84593        3.76420
H         -0.27315       -6.58356        2.82510
H         -1.92635       -7.22969        2.62184
H         -0.65155       -4.41138       -0.26939
H         -2.35602       -4.70109        0.22498
H          0.10050       -6.45716        0.66317
H         -1.55119       -6.97324        0.18272
