139
speciation58.ct
C         -1.07304       -0.26145       -0.20717
C         -0.59168       -1.49316        0.71242
C         -0.94748       -1.43439        2.16705
C         -0.34327       -0.16039        2.60854
C         -0.92139        1.08518        1.84350
N         -0.74200        1.19900        0.24700
C         -0.36024       -0.52149       -1.50056
C         -2.55244       -0.54554       -0.41953
C         -2.37331        1.28698        2.37653
C         -0.16993        2.11245        2.55066
H         -3.02318       -0.78429        0.54912
H         -3.02992        0.25918       -0.97507
H         -2.71941       -1.50980       -0.94392
H         -0.59467       -1.54055       -1.90383
H         -0.51718        0.24198       -2.24750
H          0.67844       -0.48617       -1.21294
H          0.91845        1.96500        2.41916
H         -0.63551        2.88914        2.02495
H         -0.34885        2.22053        3.64685
H         -2.39349        1.43263        3.48206
H         -2.81358        2.21378        1.98021
H         -3.00337        0.40285        2.30295
H         -0.50691       -0.08145        3.71351
H         -2.02799       -1.49445        2.38755
H         -0.95127       -2.47225        0.32362
H          0.48174       -1.57469        0.73108
H         -0.46727       -2.26992        2.73245
H          0.75500       -0.24284        2.47873
Li        -1.90095        2.90332       -0.66418
C         -2.32625        3.58126       -3.97197
C         -3.57748        3.08812       -4.59942
C         -3.31320        1.62349       -4.65917
C         -2.21381        1.43465       -3.59849
O         -1.98163        2.67252       -2.90744
H         -1.52392        3.55618       -4.75207
H         -2.52688        4.63039       -3.73473
H         -4.38356        3.29149       -3.86457
H         -3.81351        3.56999       -5.57675
H         -2.47971        0.56471       -2.99000
H         -1.26744        1.19175       -4.15096
H         -2.92526        1.31618       -5.65986
H         -4.26177        1.09240       -4.43846
C         -4.80976        1.55044        0.52422
C         -5.74580        1.16542       -0.56534
C         -6.23106        2.52083       -0.95536
C         -5.09468        3.45366       -0.46729
O         -4.02266        2.65307        0.02195
H         -5.35324        1.84017        1.45998
H         -4.29975        0.68004        0.81220
H         -5.13412        0.74171       -1.39035
H         -6.52959        0.41918       -0.29365
H         -4.79787        4.15035       -1.26574
H         -5.48327        4.03848        0.40713
H         -6.41440        2.52564       -2.04861
H         -7.16474        2.74818       -0.39197
C         -0.03097        5.22992        1.43096
C          0.66074        6.60724        1.57105
C         -0.29745        7.74555        1.28452
C         -0.73173        7.53876       -0.14115
C         -1.39573        6.14559       -0.38676
N         -0.61002        4.97931        0.05471
C          1.09861        4.25302        1.43885
C         -1.00517        5.12321        2.69035
C         -2.83823        6.07999        0.12767
C         -1.42084        5.95778       -1.83498
H         -1.67039        5.96958        2.82182
H         -0.37171        5.11774        3.61223
H         -1.72315        4.28913        2.80597
H          1.55687        4.15658        2.44956
H          0.90711        3.32887        0.84928
H          1.80790        4.46915        0.70873
H         -0.36084        6.00828       -2.08313
H         -1.77171        4.93236       -1.95393
H         -1.99041        6.71181       -2.40774
H         -3.46670        6.82887       -0.39837
H         -3.22499        5.07479       -0.07665
H         -2.94216        6.25986        1.20210
H         -1.40668        8.35866       -0.45140
H         -1.14432        7.78012        1.98054
H          1.11815        6.71603        2.59317
H          1.47827        6.70843        0.83712
H          0.26262        8.69155        1.38018
H          0.19179        7.61756       -0.76721
Li         1.21754        1.12427       -0.09169
C          2.89446        4.91328       -3.64399
C          2.61635        6.40157       -3.82608
C          1.15738        6.40526       -4.21503
C          0.78251        4.94546       -3.95319
O          1.71717        4.42529       -3.03286
H          3.03926        4.44642       -4.65581
H          3.80803        4.57844       -3.13110
H          2.64759        6.86019       -2.81496
H          3.28753        6.97430       -4.49819
H         -0.23117        4.77942       -3.67255
H          0.85346        4.36681       -4.90887
H          0.64194        7.13862       -3.55539
H          0.93029        6.67201       -5.26627
C          3.84343        5.75115        1.13927
C          4.46500        7.10036        1.17872
C          4.94860        7.23315       -0.25255
C          4.52014        5.93921       -0.91180
O          3.36090        5.57810       -0.21005
H          4.68085        5.05196        1.35434
H          3.14766        5.60487        1.97946
H          3.64557        7.82620        1.37018
H          5.24476        7.14723        1.96967
H          4.41792        6.13389       -1.96787
H          5.27055        5.11208       -0.80858
H          4.32711        8.03074       -0.71357
H          6.02903        7.42439       -0.38499
C          3.66431       -0.26652       -1.08955
C          5.21131       -0.31153       -1.32679
C          6.02854       -0.04329       -0.08478
C          5.60497        1.31051        0.41926
C          4.08558        1.33690        0.77242
N          3.17708        1.04954       -0.43038
C          3.09648       -0.47854       -2.51678
C          3.29540       -1.53927       -0.28206
C          3.83450        0.49381        2.07541
C          3.83010        2.71684        1.19522
H          3.82522       -1.71317        0.65047
H          2.25276       -1.52702       -0.06656
H          3.50876       -2.47109       -0.84243
H          3.51978       -1.42162       -2.94051
H          2.03008       -0.63821       -2.61875
H          3.37343        0.35261       -3.18876
H          3.89451        3.33072        0.28484
H          2.86000        2.70616        1.65177
H          4.54706        3.03151        1.98841
H          4.34404        0.96891        2.94542
H          2.76441        0.45888        2.32283
H          4.26191       -0.50830        2.14118
H          6.23012        1.56251        1.30694
H          5.89338       -0.82669        0.68783
H          5.52049       -1.30680       -1.72351
H          5.49145        0.45082       -2.08484
H          7.11086       -0.03312       -0.34071
H          5.82949        2.06513       -0.36988
Li         1.42627        5.02567       -1.05001
