113
speciation79.ct
C         -1.14729       -1.37778        0.82122
C         -2.56857       -1.50600        0.15511
C         -3.46632       -0.32392        0.54360
C         -2.79278        0.95238        0.08454
C         -1.34160        1.15199        0.61507
N         -0.44398       -0.08535        0.44742
C         -1.39650       -1.51667        2.32532
C         -0.20664       -2.59061        0.55346
C         -1.35788        1.64163        2.08453
C         -0.76247        2.31380       -0.23877
H          0.29177       -2.70604       -0.38930
H          0.66894       -2.52243        1.19176
H         -0.70644       -3.55817        0.76943
H         -1.69010       -2.55294        2.59046
H         -0.47641       -1.25016        2.78135
H         -2.15441       -0.91135        2.81011
H         -1.52115        2.81956       -0.88456
H         -0.35023        3.14191        0.37862
H         -0.02352        1.89787       -0.92224
H         -0.35735        1.64631        2.55258
H         -1.76090        2.67500        2.15095
H         -2.00938        1.07552        2.74892
H         -2.83156        0.90901       -1.01767
H         -4.45145       -0.42271        0.04086
H         -3.05241       -2.45388        0.46518
H         -2.57600       -1.50110       -0.94147
H         -3.68890       -0.27610        1.62106
H         -3.42084        1.83347        0.35999
Li         1.24508       -0.01836       -0.99151
C          2.34510       -2.48912        3.11495
C          1.30132       -3.13072        3.99491
C          0.81383       -1.96615        4.83515
C          1.43369       -0.74495        4.12813
O          1.85389       -1.17728        2.84210
H          3.31818       -2.41035        3.65593
H          2.51232       -3.12410        2.21906
H          0.47764       -3.42986        3.31188
H          1.61427       -4.03959        4.55141
H          0.74424        0.12227        4.09859
H          2.34205       -0.43746        4.69357
H         -0.29878       -1.97815        4.81410
H          1.13260       -1.99647        5.89493
C          4.15832        0.40398       -6.19765
C          3.45091       -0.19947       -7.40145
C          3.58890       -1.68761       -7.17171
C          4.42168       -1.77157       -5.90170
O          4.20983       -0.57547       -5.18316
H          5.21182        0.63527       -6.47784
H          3.69884        1.35715       -5.86369
H          2.37241        0.05311       -7.37723
H          3.86426        0.17418       -8.36066
H          4.19815       -2.68040       -5.30662
H          5.50354       -1.81131       -6.16945
H          2.57548       -2.07378       -6.95816
H          3.99361       -2.27538       -8.02111
C          3.50083        2.42269       -0.52042
C          2.33426        3.08632        0.13721
C          2.08452        2.28012        1.47574
C          3.26480        1.27749        1.95416
C          3.85943        0.35910        0.77769
N          3.21377        0.90114       -0.38972
C          4.68348        3.22651        0.23247
C          3.75809        2.74823       -2.00117
C          5.43218        0.27838        0.79840
C          3.55999       -1.16493        0.64487
H          4.73444        2.30948       -2.30683
H          3.00529        2.31857       -2.65070
H          3.79553        3.84439       -2.19284
H          5.73491        2.96341        0.16707
H          4.75282        4.24385       -0.21363
H          4.46428        3.54755        1.27733
H          4.04295       -1.73065        1.45798
H          2.53453       -1.50995        0.46395
H          4.02701       -1.54775       -0.29343
H          5.73914       -0.13747        1.78250
H          5.83662       -0.39257        0.00706
H          6.06363        1.13959        0.69875
H          3.02734        0.73400        2.85739
H          1.69117        2.95004        2.26637
H          2.46855        4.17981        0.31697
H          1.53145        3.11404       -0.58952
H          1.25390        1.65118        1.20854
H          4.07882        1.89344        2.35901
Li         1.58567       -0.10223        0.99894
C          0.10200        0.29226       -3.82648
C         -0.06699       -0.13188       -5.31274
C         -0.59906       -1.54232       -5.47245
C          0.37733       -2.47830       -4.75933
C          0.55822       -2.11796       -3.25930
N          0.93496       -0.67678       -3.01293
C          0.82183        1.64354       -3.86433
C         -1.28015        0.53784       -3.20994
C         -0.75025       -2.48249       -2.56943
C          1.71158       -2.99417       -2.72771
H         -2.00948       -0.26995       -3.31930
H         -1.12266        0.67131       -2.15273
H         -1.77223        1.43422       -3.64635
H          0.25519        2.38632       -4.46906
H          0.92378        2.05772       -2.85115
H          1.81926        1.52672       -4.33606
H          2.63187       -2.81278       -3.32167
H          1.97154       -2.76972       -1.67929
H          1.45923       -4.07437       -2.82038
H         -0.81336       -3.55928       -2.30247
H         -0.79124       -1.78968       -1.75050
H         -1.67934       -2.29283       -3.11918
H          0.03107       -3.53073       -4.87412
H         -1.63717       -1.61601       -5.09529
H         -0.73440        0.57891       -5.85169
H          0.91882       -0.10630       -5.80348
H         -0.65470       -1.80639       -6.55003
H          1.35222       -2.39555       -5.26116
Li         2.59323       -0.62548       -4.11185
