113
speciation77.ct
C         -1.35434       -0.91607        0.03816
C         -2.70357       -0.86836       -0.74858
C         -3.57693        0.28899       -0.31815
C         -2.77040        1.50450       -0.62423
C         -1.36936        1.58521        0.08186
N         -0.49848        0.32837        0.00080
C         -1.74577       -1.28924        1.50074
C         -0.55364       -1.96866       -0.69268
C         -1.56590        1.96692        1.55954
C         -0.73377        2.74407       -0.69538
H         -0.40085       -1.67714       -1.75485
H          0.43321       -1.99165       -0.22859
H         -1.05862       -2.96109       -0.68869
H         -2.23248       -2.28935        1.53978
H         -0.89016       -1.21445        2.17256
H         -2.51154       -0.67975        1.98089
H         -1.38442        3.20713       -1.45784
H         -0.67856        3.70066       -0.12541
H         -0.16880        2.31426       -1.53973
H         -0.60253        1.89704        2.04524
H         -1.97802        2.98371        1.69644
H         -2.23648        1.30993        2.12264
H         -2.62624        1.47776       -1.73155
H         -4.50751        0.30406       -0.92609
H         -3.27224       -1.81632       -0.60855
H         -2.51717       -0.77183       -1.84305
H         -3.89133        0.26744        0.74016
H         -3.36492        2.41948       -0.39715
Li         1.70004       -0.03799        1.02786
C          1.21134       -0.00354        4.66793
C         -0.18740        0.36055        5.06364
C         -0.17848        1.82612        4.77185
C          1.07174        1.96760        3.90064
O          1.41572        0.65508        3.38750
H          1.94963        0.35659        5.43891
H          1.36457       -1.04733        4.82792
H         -0.83710       -0.15406        4.32102
H         -0.52418        0.10189        6.08926
H          0.84080        2.80326        3.26728
H          1.93239        2.33898        4.52610
H         -1.12366        2.07981        4.24932
H         -0.07568        2.47894        5.66560
C          6.13374       -3.29994        3.70378
C          5.59218       -4.38811        4.63552
C          4.59022       -3.63450        5.48273
C          4.85813       -2.18495        5.14151
O          5.27090       -2.18157        3.77728
H          7.12799       -2.97100        4.08891
H          6.30008       -3.66540        2.66892
H          5.05336       -5.18729        4.08574
H          6.41863       -4.85244        5.20706
H          3.99276       -1.53101        5.32355
H          5.70526       -1.80749        5.75279
H          3.57342       -3.85973        5.10207
H          4.59369       -3.87720        6.57567
C          3.49915        2.73529       -0.81661
C          2.26831        3.17915       -0.18808
C          2.19556        2.58195        1.24157
C          3.47867        1.76492        1.82361
C          4.36460        1.08056        0.75206
N          3.52668        1.27496       -0.42162
C          4.57217        3.76251       -0.30667
C          3.51232        2.86364       -2.36244
C          5.89264        1.52314        0.99417
C          4.55425       -0.40865        0.62471
H          4.49335        2.50995       -2.75454
H          2.72054        2.25458       -2.84326
H          3.38725        3.92357       -2.68250
H          4.67141        3.81731        0.78516
H          5.55510        3.64016       -0.80419
H          4.24594        4.80947       -0.49013
H          4.92947       -0.96972        1.48068
H          4.64366       -0.58820       -0.46189
H          5.50727       -0.61727        0.07740
H          6.10462        1.24445        2.05404
H          6.67754        1.00254        0.40384
H          6.24826        2.55421        0.96454
H          4.05989        2.56124        2.31002
H          1.96703        3.47168        1.83521
H          2.01357        4.25943       -0.28903
H          1.59946        2.64622       -0.81897
H          1.34275        1.88740        1.18080
H          3.40798        1.08504        2.67296
Li         1.53126        0.60993       -0.43468
C          2.97409       -3.42997       -0.17011
C          3.67372       -4.72540        0.37083
C          2.79498       -5.56641        1.24929
C          2.43959       -4.69573        2.42558
C          1.66387       -3.44290        1.97916
N          2.42531       -2.53321        0.99982
C          4.12133       -2.81326       -0.99498
C          1.95642       -3.76865       -1.28686
C          0.27196       -3.95406        1.57661
C          1.46227       -2.64995        3.21001
H          1.08202       -4.34515       -1.00715
H          2.43457       -4.40157       -2.05984
H          1.63837       -2.85059       -1.81806
H          4.48877       -3.51166       -1.77205
H          3.74200       -1.95154       -1.58198
H          5.02570       -2.65952       -0.37411
H          2.43549       -2.38512        3.65737
H          0.94911       -1.73718        2.89479
H          0.86205       -3.17942        3.98725
H         -0.21842       -4.49690        2.41136
H         -0.34568       -3.13776        1.41143
H          0.18419       -4.63297        0.73379
H          1.84468       -5.29494        3.15566
H          1.91067       -5.93017        0.69413
H          4.03325       -5.36146       -0.46038
H          4.57035       -4.44703        0.97886
H          3.35332       -6.45481        1.61038
H          3.36897       -4.39655        2.93188
Li         3.89263       -2.29238        2.41196
