152
speciation33.ct
C          1.00647        1.08903       -0.81851
C          1.52436       -0.31792       -0.45156
C          1.06627       -1.44854       -1.38061
C         -0.44693       -1.47690       -1.38771
C         -1.04104       -0.07936       -1.63261
N         -0.51593        1.07553       -0.69625
C          1.53949        2.07480        0.20141
C          1.74754        1.52660       -2.14304
C         -0.84979        0.16497       -3.16536
C         -2.52361       -0.29384       -1.49267
H          2.08069        2.57742       -2.11231
H          1.32371        1.36719       -3.12534
H          2.74861        1.04537       -2.19914
H          2.65716        2.10049        0.20514
H          1.17890        3.09856       -0.03507
H          1.19347        1.78725        1.18966
H         -2.82244       -1.10336       -0.83203
H         -2.97009        0.65478       -1.19550
H         -2.93357       -0.83644       -2.36198
H         -1.41099       -0.58036       -3.77147
H         -1.19238        1.15426       -3.47832
H          0.13507       -0.10825       -3.55566
H         -0.81497       -2.24026       -2.10876
H          1.46102       -1.31304       -2.39324
H          2.63315       -0.34729       -0.48596
H          1.13809       -0.53307        0.55141
H          1.42863       -2.44681       -1.04970
H         -0.86389       -1.83355       -0.46576
Li        -0.36842        0.91175        2.07528
C          1.56953        3.77512        3.01416
C          2.66299        3.76518        4.11427
C          1.97085        3.14434        5.28949
C          0.64498        2.70110        4.67321
O          0.71401        2.63743        3.24113
H          0.97219        4.71315        3.13432
H          2.06669        3.81664        2.03494
H          3.45766        3.06644        3.80309
H          3.15106        4.73761        4.35969
H          0.35546        1.73837        5.14771
H         -0.02560        3.55795        4.93933
H          2.59331        2.31594        5.68258
H          1.80392        3.80428        6.17508
C         -1.25161        4.89177        0.52396
C         -1.97048        6.09778        1.18602
C         -2.65811        6.78332        0.01597
C         -2.10298        6.02496       -1.17101
O         -1.84019        4.68436       -0.74257
H         -0.17450        5.15864        0.38104
H         -1.28304        3.96646        1.12659
H         -2.76530        5.80302        1.89885
H         -1.31347        6.74960        1.79604
H         -2.77484        6.09979       -2.04734
H         -1.16343        6.57576       -1.38569
H         -3.74975        6.61758        0.07877
H         -2.54521        7.88792       -0.04043
C         -3.26461        2.15012        3.92434
C         -4.78215        2.00669        4.33792
C         -5.29226        0.60113        4.41702
C         -5.02135        0.05009        3.04792
C         -3.49005       -0.03437        2.74342
N         -2.63381        1.16592        2.88902
C         -3.18235        3.55833        3.34410
C         -2.57485        2.16675        5.26564
C         -2.87363       -1.06224        3.58601
C         -3.43408       -0.43662        1.31469
H         -2.68318        1.24743        5.85764
H         -1.58548        2.33131        5.04508
H         -2.90832        3.05066        5.86776
H         -3.56295        4.35188        4.02136
H         -2.15941        3.79586        3.03140
H         -3.87445        3.58026        2.50742
H         -3.99723        0.28496        0.68075
H         -2.35940       -0.41081        1.03567
H         -3.89714       -1.42397        1.12035
H         -3.40212       -2.03228        3.41854
H         -1.83063       -0.99962        3.24290
H         -2.87329       -0.81685        4.65648
H         -5.49947       -0.95097        2.94773
H         -4.80939        0.00850        5.22123
H         -5.03500        2.54762        5.27800
H         -5.43309        2.50954        3.62422
H         -6.38736        0.60717        4.60933
H         -5.54368        0.69855        2.30984
Li        -1.86198        2.88997       -1.84134
C          0.05678        3.83255       -3.83421
C          0.09077        5.32030       -3.74762
C         -1.09184        5.73229       -4.56900
C         -1.87765        4.42594       -4.64035
O         -1.28385        3.48571       -3.76072
H          0.50807        3.43858       -4.77209
H          0.54142        3.46218       -2.95725
H         -0.14593        5.47720       -2.69853
H          1.03806        5.85421       -3.93368
H         -2.94161        4.65100       -4.61252
H         -1.77591        4.01449       -5.68304
H         -1.63747        6.55361       -4.05119
H         -0.82441        6.05058       -5.59626
C         -4.77966        1.31753       -2.69010
C         -5.62138        1.76905       -3.86963
C         -4.86513        2.97236       -4.29654
C         -4.49434        3.49994       -2.93580
O         -3.94088        2.41097       -2.26741
H         -5.44946        0.95807       -1.85630
H         -4.27211        0.45493       -3.03949
H         -5.72307        0.97961       -4.64818
H         -6.63089        2.06405       -3.49464
H         -3.83767        4.36279       -2.85363
H         -5.42723        3.83190       -2.43001
H         -3.93376        2.65052       -4.81440
H         -5.45370        3.67518       -4.91824
C          2.45881       -0.90700        3.32338
C          3.24602       -2.06771        4.01312
C          2.97213       -3.39285        3.37849
C          1.52461       -3.62727        3.64600
C          0.56492       -2.59761        2.98249
N          0.92571       -1.09241        3.11633
C          2.71997        0.26891        4.22691
C          3.22364       -0.59694        2.02973
C          0.47024       -2.87157        1.53302
C         -0.79252       -3.06476        3.59704
H          3.15653       -1.43196        1.30992
H          2.86884        0.35217        1.61956
H          4.29860       -0.44209        2.20268
H          3.81083        0.52032        4.29068
H          2.24186        1.08979        3.75065
H          2.34289        0.08662        5.25965
H         -0.97629       -2.63858        4.61173
H         -1.61415       -2.98658        2.86462
H         -0.87233       -4.16851        3.71920
H          0.06042       -3.87041        1.28377
H         -0.24054       -2.08259        1.29859
H          1.44510       -2.72782        1.06398
H          1.25765       -4.66081        3.31873
H          3.20095       -3.43615        2.29367
H          4.34060       -1.89170        3.96944
H          3.00279       -2.14665        5.10491
H          3.55456       -4.18708        3.88764
H          1.36940       -3.61115        4.74878
Li        -3.64467        2.02538        1.40591
C         -4.69540        4.24268        0.20058
C         -5.97225        4.63643        0.94649
C         -6.70681        3.34601        1.06216
C         -6.01728        2.49253        0.03304
O         -4.63013        2.86325       -0.03992
H         -4.65396        4.81635       -0.73624
H         -3.81807        4.50171        0.72935
H         -5.79745        5.09312        1.94870
H         -6.54730        5.34467        0.31337
H         -6.16585        1.41403        0.25133
H         -6.51206        2.70982       -0.92918
H         -6.51097        2.90649        2.02877
H         -7.81194        3.42268        0.97231
