71
speciation3.ct
C          0.14934        2.29369       -0.61279
C          1.50707        1.60635       -0.39939
C          1.64644        0.34031       -1.24760
C          0.51093       -0.63768       -0.89574
C         -0.88414        0.02304       -1.05056
N         -0.92862        1.31121       -0.27932
C          0.02265        3.48870        0.33909
C          0.05786        2.93743       -2.02903
C         -1.26306        0.15642       -2.55644
C         -1.96014       -0.90470       -0.47377
H          0.39609        2.32515       -2.86595
H         -0.97075        3.30987       -2.22857
H          0.75219        3.80309       -2.09714
H          0.87311        4.19209        0.22324
H         -0.87877        4.07113        0.07133
H         -0.01695        3.16775        1.39319
H         -1.80678       -1.02539        0.60033
H         -2.97450       -0.47533       -0.62171
H         -1.92825       -1.90563       -0.96279
H         -1.38853       -0.85130       -3.01220
H         -2.22203        0.70396       -2.67976
H         -0.50689        0.59605       -3.20877
H          0.59414       -1.55484       -1.51932
H          1.64640        0.59146       -2.32638
H          2.34703        2.30899       -0.58609
H          1.54889        1.26509        0.63792
H          2.62397       -0.14068       -1.02547
H          0.64842       -0.93521        0.16817
Li        -0.84930        1.04191        1.89783
C         -2.60491        2.02468        3.99750
C         -3.96695        1.71817        3.41364
C         -4.08565        2.74475        2.30798
C         -2.71538        3.38733        2.31327
O         -1.82258        2.47014        2.91498
H         -2.67172        2.84221        4.75495
H         -2.15543        1.20254        4.54390
H         -3.88949        0.72040        2.92691
H         -4.79673        1.71013        4.15115
H         -2.45170        3.75172        1.32224
H         -2.72556        4.30136        2.96160
H         -4.23136        2.20546        1.34604
H         -4.87327        3.51697        2.44438
C         -0.10371       -1.41808        3.96499
C          0.96330       -2.12037        4.85504
C          1.65550       -1.15602        5.79536
C          2.37323       -0.15443        4.91925
C          1.38149        0.68485        4.05730
N          0.38795       -0.14793        3.28408
C         -0.48908       -2.46086        2.90139
C         -1.36865       -1.18565        4.81763
C          0.67628        1.71761        4.96154
C          2.26991        1.48003        3.09309
H         -1.21060       -0.48114        5.65250
H         -2.20794       -0.86478        4.16976
H         -1.70188       -2.13520        5.28962
H         -0.83241       -3.40577        3.38232
H         -1.32759       -2.10377        2.29293
H          0.37467       -2.70135        2.24725
H          2.81126        0.79019        2.40709
H          1.66520        2.20567        2.52561
H          3.03748        2.07189        3.63818
H          1.42503        2.34650        5.49093
H          0.07221        2.40618        4.34876
H          0.03579        1.26147        5.73097
H          3.00605        0.51018        5.55019
H          0.95810       -0.67531        6.50508
H          0.51401       -2.95212        5.43739
H          1.75373       -2.58041        4.21467
H          2.41363       -1.71567        6.39823
H          3.06990       -0.71685        4.25570
Li        -2.67083        2.11680       -0.64683
