97
speciation17.ct
C         -1.20046       -1.39043        0.68368
C         -2.50188       -1.31707       -0.14979
C         -3.42449       -0.20680        0.39647
C         -2.70556        1.13553        0.44289
C         -1.18485        1.08039        0.88417
N         -0.42344       -0.13305        0.44873
C         -1.52557       -1.67232        2.16904
C         -0.35014       -2.55931        0.27358
C         -1.06453        1.36070        2.41357
C         -0.50121        2.15901        0.13371
H         -0.06481       -2.39900       -0.71014
H          0.57136       -2.57370        0.84261
H         -0.86886       -3.53804        0.37389
H         -1.89831       -2.71069        2.30900
H         -0.61584       -1.49942        2.73859
H         -2.30236       -1.07075        2.64091
H          0.51829        1.84582       -0.03984
H         -0.71937        3.19845        0.45158
H         -0.75939        2.03188       -0.87734
H         -0.07757        1.11913        2.83495
H         -1.29733        2.42617        2.61968
H         -1.78933        0.82803        3.03518
H         -2.80506        1.51352       -0.57070
H         -4.33554       -0.11393       -0.23360
H         -3.04134       -2.28694       -0.11191
H         -2.23638       -1.10934       -1.21247
H         -3.80089       -0.46013        1.39718
H         -3.26634        1.90280        1.01771
Li         1.10892        0.12414       -1.28641
C          2.61604       -2.06728       -3.01507
C          2.21056       -2.34852       -4.46882
C          0.78837       -2.84557       -4.37233
C          0.46260       -2.59129       -2.92354
O          1.41493       -1.68131       -2.35206
H          2.98283       -3.01555       -2.54108
H          3.41448       -1.32914       -2.95114
H          2.15404       -1.35752       -4.96731
H          2.89869       -2.99976       -5.05488
H         -0.59963       -2.29780       -2.80444
H          0.58494       -3.57048       -2.39211
H          0.15355       -2.24887       -5.05921
H          0.66295       -3.92910       -4.60765
C          0.39646        2.73522       -2.99313
C         -1.08843        3.10165       -3.04609
C         -1.73860        1.74448       -3.28611
C         -0.57168        0.88544       -3.69533
O          0.49477        1.32139       -2.86731
H          0.85825        3.00211       -3.97780
H          0.94843        3.32609       -2.24661
H         -1.47441        3.56380       -2.10687
H         -1.24927        3.83959       -3.85360
H         -0.79553       -0.18830       -3.56897
H         -0.32491        1.05647       -4.76869
H         -1.98937        1.26390       -2.34717
H         -2.68547        1.75392       -3.85519
C          3.45088        2.48018       -0.42952
C          2.42288        3.24920        0.37968
C          2.32338        2.45332        1.75116
C          3.43962        1.33997        2.04413
C          3.82593        0.39142        0.79995
N          3.08198        0.96987       -0.31367
C          4.78538        3.18407        0.21223
C          3.61347        2.78195       -1.92752
C          5.39568        0.23963        0.66220
C          3.46077       -1.12452        0.75553
H          4.56696        2.30747       -2.27595
H          2.84246        2.31374       -2.55064
H          3.68316        3.86710       -2.14269
H          5.58156        2.77250        0.81439
H          5.13016        4.06452       -0.36978
H          4.55882        3.73127        1.15664
H          3.91856       -1.67909        1.59569
H          2.42074       -1.42232        0.60810
H          3.87125       -1.57010       -0.18391
H          5.78893       -0.08169        1.65522
H          5.71021       -0.51362       -0.08547
H          6.06521        1.01945        0.32397
H          3.20931        0.75761        2.92015
H          2.10786        3.14125        2.59643
H          2.69264        4.31685        0.54233
H          1.51010        3.51819       -0.14944
H          1.44948        1.84941        1.71392
H          4.33185        1.87863        2.39978
Li         1.52855        0.01261        1.14851
C          1.92471       -2.57726        3.16445
C          0.98689       -2.89888        4.32037
C          0.89199       -1.56515        5.04834
C          1.86151       -0.69372        4.28684
O          1.80510       -1.16189        2.94675
H          2.97269       -2.79039        3.48001
H          1.79038       -3.24055        2.29700
H         -0.02792       -3.16672        3.95719
H          1.35599       -3.74837        4.92566
H          2.90332       -0.84295        4.68000
H          1.61946        0.37755        4.40525
H         -0.11261       -1.12704        4.85700
H          1.05569       -1.59853        6.14488
