139
speciation60.ct
C          0.87348        1.04839       -0.69772
C          1.52373       -0.32053       -0.51975
C          0.90962       -1.48913       -1.32534
C         -0.60908       -1.58438       -1.16427
C         -1.27229       -0.19486       -1.02076
N         -0.55992        0.93882       -0.29665
C          1.50926        2.09297        0.23643
C          1.16182        1.54062       -2.14471
C         -1.52994        0.16071       -2.45508
C         -2.58757       -0.30654       -0.32792
H          0.99917        0.80303       -2.93603
H          0.58243        2.44081       -2.38642
H          2.24332        1.76489       -2.25712
H          2.60708        2.16155        0.06830
H          1.06704        3.09210        0.05688
H          1.32162        1.84824        1.29873
H         -2.54217       -0.56665        0.73540
H         -2.91102        0.73612       -0.32382
H         -3.27387       -1.01234       -0.82514
H         -2.43960       -0.35048       -2.84975
H         -1.56475        1.23236       -2.44622
H         -0.74971       -0.14775       -3.16730
H         -1.03484       -2.19860       -1.98563
H          1.14008       -1.33083       -2.39552
H          2.63053       -0.30221       -0.68373
H          1.34796       -0.54483        0.51298
H          1.35666       -2.46683       -1.03611
H         -0.93566       -2.29308       -0.42501
Li        -0.61141        1.12362        2.06468
C         -0.21588        3.47396        3.94569
C         -0.83882        3.83575        5.28422
C         -2.18530        4.35575        4.86094
C         -2.32590        3.81745        3.41971
O         -1.24080        2.90230        3.15486
H          0.20429        4.36320        3.44409
H          0.56934        2.73220        4.13282
H         -0.99331        2.88724        5.84110
H         -0.24023        4.49891        5.95261
H         -3.34755        3.39001        3.27489
H         -2.23049        4.70244        2.75887
H         -2.95606        4.01923        5.59268
H         -2.23501        5.47580        4.90159
C         -2.09086        5.45503        0.00491
C         -2.22688        6.50952       -1.09191
C         -1.05504        6.19753       -2.00214
C         -0.30561        5.12345       -1.24417
O         -1.27447        4.40867       -0.50185
H         -1.53292        5.91894        0.85564
H         -3.06115        5.13304        0.42721
H         -3.16304        6.36796       -1.67244
H         -2.20729        7.53756       -0.65997
H          0.28144        4.49360       -1.93027
H          0.41617        5.59002       -0.53085
H         -1.44198        5.70916       -2.90755
H         -0.45554        7.06342       -2.35165
C          1.72601       -0.62772        3.76392
C          2.02545       -1.93851        4.54550
C          1.33394       -3.16094        3.93873
C         -0.16535       -2.90342        3.94234
C         -0.53476       -1.63443        3.16323
N          0.22406       -0.41486        3.54393
C          2.25889        0.56030        4.56934
C          2.66171       -0.67186        2.51660
C         -0.34296       -1.95345        1.75422
C         -2.01896       -1.31694        3.34207
H          2.54828       -1.55592        1.87185
H          2.65971        0.27824        1.94822
H          3.72905       -0.76695        2.84474
H          3.33101        0.42887        4.82678
H          2.20193        1.47804        3.95874
H          1.68090        0.69214        5.50946
H         -2.20468       -1.23375        4.41609
H         -2.27635       -0.33784        2.88130
H         -2.68784       -2.10018        2.92445
H         -1.03372       -2.79157        1.50966
H         -0.56744       -1.01199        1.25649
H          0.64663       -2.30052        1.45747
H         -0.71570       -3.79099        3.55221
H          1.71820       -3.38300        2.92131
H          3.11537       -2.13021        4.60807
H          1.68677       -1.83704        5.57622
H          1.54700       -4.06042        4.54858
H         -0.48608       -2.76377        4.95733
Li        -1.88277        2.54895       -0.99852
C         -3.04050       -0.38161        7.09777
C         -4.19329       -0.75202        6.19070
C         -4.27035        0.42457        5.25350
C         -3.02739        1.21708        5.61152
O         -2.15861        0.39770        6.34120
H         -3.38561        0.22358        7.96712
H         -2.58434       -1.28109        7.49118
H         -3.87665       -1.63901        5.60888
H         -5.12997       -1.02622        6.70325
H         -2.56079        1.63362        4.71679
H         -3.32767        2.03300        6.31032
H         -4.22322        0.05278        4.20960
H         -5.17460        1.05889        5.37027
C         -0.57858       -2.80334        7.39361
C         -0.91081       -2.72054        8.88071
C         -0.23324       -1.42695        9.29881
C          0.67591       -1.11249        8.13366
O         -0.03859       -1.55155        7.00961
H          0.21809       -3.56524        7.23031
H         -1.47205       -3.11470        6.81520
H         -1.99872       -2.62165        9.08335
H         -0.54328       -3.63444        9.38835
H          0.92723       -0.03268        8.08291
H          1.62675       -1.69212        8.19606
H         -1.00522       -0.62635        9.28261
H          0.23826       -1.44165       10.30527
C         -3.67513        2.46527       -3.68235
C         -4.73902        1.66870       -4.45884
C         -6.11764        1.82803       -3.84993
C         -6.08597        1.25942       -2.45646
C         -5.06250        1.97809       -1.51324
N         -3.68208        2.06894       -2.18763
C         -2.33751        2.18697       -4.44970
C         -3.87085        3.98181       -3.90004
C         -5.47180        3.37764       -1.02931
C         -5.20754        1.13077       -0.18817
H         -4.82672        4.40011       -3.60254
H         -3.06412        4.51663       -3.39822
H         -3.81873        4.21503       -4.98777
H         -2.38417        2.55209       -5.49999
H         -1.46826        2.70454       -3.98971
H         -2.13157        1.11153       -4.60411
H         -5.08246        0.03088       -0.36444
H         -4.58269        1.47166        0.65641
H         -6.24394        1.16872        0.19239
H         -6.41629        3.34365       -0.45054
H         -4.66918        3.75076       -0.35783
H         -5.64098        4.09979       -1.81317
H         -7.10227        1.30302       -2.00995
H         -6.44718        2.88496       -3.84614
H         -4.76815        1.98966       -5.52278
H         -4.46847        0.58498       -4.45147
H         -6.84166        1.23680       -4.44777
H         -5.79391        0.19775       -2.54255
Li        -0.59459       -0.41817        5.50417
