165
speciation95.ct
C         -1.05424       -1.42483        1.12785
C         -2.47078       -1.36998        0.50251
C         -3.33997       -0.45049        1.30822
C         -2.65270        0.90445        1.27588
C         -1.24470        0.95577        1.82178
N         -0.31885       -0.08730        1.10735
C         -1.10042       -2.18280        2.49484
C         -0.29725       -2.26887        0.24861
C         -1.46119        0.69642        3.29079
C         -0.78191        2.46522        1.84678
H         -0.27849       -1.66547       -0.64377
H          0.65158       -2.28749        0.68049
H         -0.71200       -3.29370        0.13105
H         -1.42754       -3.23231        2.34419
H         -0.10935       -2.18516        2.95360
H         -1.82354       -1.87253        3.24692
H         -0.22945        2.84805        1.02891
H         -0.15299        2.74324        2.71075
H         -1.66276        3.14892        1.92355
H         -0.48125        0.34090        3.54458
H         -1.85217        1.59725        3.82660
H         -2.22085        0.00148        3.63568
H         -2.52579        1.15882        0.23754
H         -4.35468       -0.35788        0.91428
H         -2.93615       -2.37940        0.44804
H         -2.39764       -0.97430       -0.53589
H         -3.53040       -0.85492        2.31244
H         -3.30387        1.60222        1.85443
Li         0.97295        0.09260       -1.05110
C          2.24437       -2.64933       -2.74691
C          1.87200       -3.32857       -4.07544
C          0.40223       -3.62493       -3.90163
C          0.13552       -3.07353       -2.50890
O          1.08558       -1.97957       -2.27399
H          2.52595       -3.50103       -2.06711
H          3.15051       -2.01245       -2.84167
H          1.96775       -2.57552       -4.88395
H          2.46529       -4.23046       -4.33708
H         -0.91556       -2.92624       -2.28262
H          0.35233       -3.93345       -1.81597
H         -0.11860       -3.05462       -4.68776
H          0.08447       -4.69257       -4.00884
C          1.32648       -0.83291        5.07944
C          0.22445       -0.10410        5.84975
C          0.57616        1.37076        5.63696
C          1.94296        1.25016        5.02502
O          1.85745        0.10103        4.13959
H          2.15910       -1.08508        5.78750
H          1.01364       -1.77680        4.67626
H         -0.78985       -0.35476        5.48096
H          0.23866       -0.41661        6.90698
H          2.25338        2.21832        4.63408
H          2.70340        1.08168        5.82366
H          0.03260        1.85419        4.81724
H          0.36548        2.05418        6.47683
C          3.39027        2.13825       -0.04654
C          2.25078        2.39911        0.72919
C          2.40239        1.74152        2.12723
C          3.64564        0.67224        2.26830
C          4.34532        0.21997        0.94330
N          3.27818        0.64807        0.02693
C          4.41013        3.18939        0.59259
C          3.71143        2.33546       -1.51400
C          5.88036        0.70641        1.08156
C          4.67946       -1.10894        0.25617
H          4.69918        1.88254       -1.74439
H          2.97276        1.76174       -2.05989
H          3.83127        3.39767       -1.83095
H          4.54691        3.18915        1.68517
H          3.98628        4.20588        0.40107
H          5.37396        3.31557        0.07565
H          5.26734       -1.80910        0.87978
H          3.94244       -1.46923       -0.45079
H          5.32484       -0.89313       -0.63970
H          6.18950        0.58836        2.13292
H          6.67570        0.10135        0.59266
H          6.20259        1.69386        0.79866
H          4.31701        1.38221        2.75620
H          2.57879        2.62679        2.75670
H          1.91845        3.44019        0.92579
H          1.36240        1.81776        0.23889
H          1.42660        1.34043        2.36577
H          3.76992       -0.06378        3.07827
Li         1.80230       -0.43453        1.83748
C          2.82107       -3.19730        0.72201
C          2.19235       -4.56636        0.65943
C          1.64251       -4.71553        2.03181
C          2.32102       -3.59937        2.81064
O          2.44758       -2.51467        1.90709
H          3.91525       -3.39404        0.72786
H          2.45625       -2.66267       -0.14797
H          1.36402       -4.63026       -0.06952
H          2.95956       -5.30835        0.34681
H          1.73328       -3.40678        3.71566
H          3.34335       -3.91102        3.13169
H          0.57012       -4.44896        1.96415
H          1.71668       -5.74598        2.42343
C         -5.07890        0.06942       -1.57596
C         -6.39378        0.67070       -1.10727
C         -5.99920        1.79852       -0.23030
C         -4.60336        2.11551       -0.74428
O         -4.01451        1.03275       -1.49588
H         -4.86917       -0.82399       -0.97171
H         -5.28676       -0.28681       -2.57327
H         -6.86286        1.16685       -1.97837
H         -7.11020       -0.07507       -0.68533
H         -4.25056        3.12196       -0.90883
H         -4.15244        2.30998        0.18876
H         -6.18775        1.68796        0.87538
H         -6.63319        2.66080       -0.40615
C          0.53520        2.02054       -4.24324
C          0.13225        3.38955       -4.93815
C          0.39829        4.64134       -4.14185
C         -0.41465        4.49771       -2.87511
C         -0.12692        3.17593       -2.10619
N         -0.08828        1.82153       -2.81620
C          0.03856        0.94509       -5.22483
C          2.07056        1.92051       -4.32210
C          1.15866        3.57826       -1.43291
C         -1.23666        2.97905       -1.14095
H          2.60656        2.77236       -3.87787
H          2.42040        0.94359       -3.92385
H          2.42922        1.95223       -5.37963
H          0.62313       -0.00033       -5.17808
H         -1.01446        0.76446       -5.06662
H          0.12241        1.29772       -6.28548
H         -2.16185        2.79235       -1.70142
H         -0.95937        2.03158       -0.65751
H         -1.39663        3.84615       -0.46738
H          0.81011        4.18647       -0.57773
H          1.41615        4.63018       -1.15487
H          1.88593        3.77828       -2.20704
H         -0.25988        5.41949       -2.25616
H          1.48338        4.79874       -3.96595
H          0.68677        3.51302       -5.90211
H         -0.93763        3.36520       -5.16257
H          0.06497        5.55210       -4.68285
H         -1.44366        4.50875       -3.03438
Li        -2.57092        1.27671       -3.12969
C         -3.60289        2.76845       -5.56867
C         -3.51358        4.27890       -5.82001
C         -3.85757        4.84867       -4.46685
C         -4.31851        3.66397       -3.68589
O         -3.51746        2.61415       -4.17282
H         -4.61311        2.41768       -5.89778
H         -2.84491        2.18172       -6.12373
H         -2.48018        4.60229       -6.08109
H         -4.21223        4.60794       -6.60452
H         -4.11822        3.90099       -2.65853
H         -5.40817        3.44950       -3.82492
H         -2.90251        5.07173       -4.06349
H         -4.32710        5.83736       -4.32819
C         -4.12891       -0.67738       -4.79229
C         -4.46794       -2.06868       -4.21232
C         -3.36636       -2.27493       -3.21333
C         -2.26847       -1.48490       -3.87971
O         -2.83640       -0.30645       -4.34568
H         -4.13816       -0.74126       -5.90080
H         -4.85201        0.11361       -4.52664
H         -5.49740       -2.19791       -3.80717
H         -4.31492       -2.82515       -5.01227
H         -1.43814       -1.20609       -3.21989
H         -1.91377       -2.05165       -4.76498
H         -3.56200       -1.77398       -2.27134
H         -3.15780       -3.34113       -2.96626
