139
speciation89.ct
C         -1.76792       -1.01421       -0.03761
C         -3.19016       -1.03975       -0.69429
C         -4.00332        0.17712       -0.34461
C         -3.22706        1.33331       -0.88814
C         -1.75522        1.41897       -0.34914
N         -0.90536        0.16324       -0.38035
C         -1.98474       -1.19028        1.50046
C         -1.08420       -2.16470       -0.65858
C         -1.79842        1.91628        1.08478
C         -1.10513        2.44080       -1.28358
H         -0.99323       -2.03423       -1.76143
H         -0.08308       -2.10990       -0.22576
H         -1.63060       -3.11395       -0.47954
H         -2.48094       -2.17223        1.68758
H         -1.03884       -1.06816        2.05911
H         -2.67930       -0.51353        1.99534
H         -1.67491        2.66867       -2.20701
H         -0.98462        3.44100       -0.79192
H         -0.22625        1.99069       -1.75698
H         -0.88643        1.50845        1.49147
H         -1.91941        3.01078        1.19677
H         -2.58576        1.48113        1.70383
H         -3.22625        1.19814       -1.99468
H         -4.99735        0.12818       -0.83510
H         -3.74948       -1.95110       -0.38643
H         -3.10785       -1.07663       -1.80197
H         -4.19899        0.26512        0.74330
H         -3.76748        2.28763       -0.68137
Li         1.44353        0.07630        0.59304
C          0.42786        1.99834        3.52876
C          1.30816        3.12002        4.08020
C          2.61695        2.43624        4.26455
C          2.29095        0.94339        3.93962
O          1.24902        0.96328        2.90176
H         -0.11471        1.51978        4.37745
H         -0.34692        2.54787        3.00425
H          1.45400        3.97324        3.36911
H          0.85166        3.58400        4.97780
H          3.20563        0.38161        3.70839
H          1.88573        0.48168        4.84732
H          3.30887        2.86370        3.51508
H          3.08699        2.64502        5.24805
C          5.15982       -1.88749        5.38344
C          5.57296       -3.31640        5.41702
C          4.19485       -3.98752        5.58907
C          3.26228       -2.84232        5.66815
O          3.89021       -1.94186        4.76169
H          5.08957       -1.52554        6.45261
H          5.78580       -1.09161        4.99389
H          6.35043       -3.57539        6.15361
H          5.99550       -3.50264        4.41342
H          2.21398       -3.09085        5.47513
H          3.21903       -2.44013        6.71459
H          3.83021       -4.32571        4.62390
H          4.10419       -4.77920        6.35483
C          3.01769        3.24326       -1.13070
C          1.73331        3.60985       -0.54573
C          1.64583        2.63420        0.72533
C          3.04481        1.73290        1.04560
C          3.76958        1.16304       -0.21962
N          2.89208        1.70228       -1.10702
C          3.97895        4.16393       -0.17792
C          3.38106        3.63153       -2.57137
C          5.29929        1.53031       -0.29966
C          3.66156       -0.18421       -0.90259
H          4.40854        3.24896       -2.78293
H          2.69470        3.15822       -3.29843
H          3.39604        4.72866       -2.72309
H          3.55589        4.39902        0.83042
H          4.02961        5.19259       -0.59308
H          5.02585        3.93572        0.04942
H          4.24128       -0.94647       -0.47825
H          2.63806       -0.57153       -1.09596
H          4.13007       -0.07170       -1.93393
H          5.70568        1.70603        0.72351
H          5.93542        0.72879       -0.72200
H          5.54701        2.32389       -1.01594
H          3.72302        2.44843        1.50935
H          1.16780        3.21631        1.49541
H          1.60067        4.69373       -0.32215
H          1.05755        3.44997       -1.36549
H          0.88103        1.91956        0.45541
H          3.13633        0.91876        1.73038
Li         1.02057        0.76427       -1.00698
C          5.99622       -5.40979        1.78615
C          5.49301       -6.84341        1.48497
C          4.69067       -7.18838        2.71457
C          5.16218       -6.14233        3.66926
O          5.25569       -4.92571        2.88926
H          7.05995       -5.48271        2.12593
H          6.03771       -4.74257        0.91027
H          4.83305       -6.94264        0.60292
H          6.36317       -7.52035        1.36272
H          4.47593       -6.19982        4.52999
H          6.16157       -6.41245        4.08596
H          3.62720       -6.94123        2.56817
H          4.71381       -8.24711        3.05006
C          5.95357       -1.68431        1.07692
C          7.40250       -1.69628        0.62917
C          8.14147       -1.63047        1.92356
C          7.08312       -1.18979        2.88871
O          5.85846       -1.74664        2.43158
H          5.55454       -0.68656        0.91562
H          5.38611       -2.53524        0.71098
H          7.68281       -2.62406        0.08598
H          7.57653       -0.80678       -0.01296
H          7.41856       -1.54485        3.87891
H          6.96623       -0.07800        2.90366
H          8.38887       -2.67368        2.21072
H          9.06321       -1.00959        1.92036
C          2.69828       -3.40322       -0.53432
C          3.05820       -4.89688       -0.28182
C          2.16353       -5.64764        0.64633
C          2.16080       -4.86026        1.94895
C          1.55087       -3.47014        1.75594
N          2.41829       -2.57010        0.82919
C          3.86621       -3.03522       -1.52894
C          1.50411       -3.38748       -1.53431
C          0.06028       -3.83758        1.48903
C          1.46707       -2.75194        3.06426
H          0.62319       -3.93399       -1.20843
H          1.28994       -2.34341       -1.85098
H          1.73606       -3.92105       -2.48455
H          3.96888       -3.81034       -2.32478
H          3.67955       -2.18961       -2.20371
H          4.88251       -3.04143       -1.13410
H          2.47969       -2.57350        3.29650
H          0.96915       -1.76628        2.98570
H          0.94811       -3.36644        3.83000
H         -0.33563       -4.51104        2.28388
H         -0.55102       -3.00744        1.63160
H         -0.21526       -4.36644        0.57846
H          1.62248       -5.45899        2.71433
H          1.17227       -5.81887        0.19310
H          3.09904       -5.48576       -1.23134
H          4.05784       -4.90948        0.14776
H          2.55910       -6.67143        0.76976
H          3.16247       -4.71711        2.30755
Li         4.28560       -2.87489        2.73287
