68
speciation2.ct
C          0.80241       -0.11497       -1.67183
C          1.00346       -1.64399       -1.95445
C         -0.20198       -2.47501       -1.60639
C         -0.37535       -2.30588       -0.12713
C         -0.66332       -0.81913        0.31220
N          0.29068        0.19708       -0.29072
C          2.18045        0.49581       -1.83279
C         -0.10423        0.47441       -2.75305
C         -0.54306       -0.81372        1.84421
C         -2.12093       -0.47707       -0.03519
H         -1.11703        0.04707       -2.76700
H         -0.15241        1.54746       -2.58510
H          0.33474        0.31273       -3.76254
H          2.06550        1.56959       -1.82267
H          2.86643        0.16286       -1.01685
H          2.64116        0.24003       -2.80673
H         -2.82417       -1.19499        0.44882
H         -2.34568        0.52660        0.35040
H         -2.32361       -0.51120       -1.11273
H         -0.79914        0.17168        2.27033
H         -1.23229       -1.56944        2.30253
H          0.48884       -1.08594        2.16018
H         -1.19397       -2.98184        0.24176
H         -1.09889       -2.16209       -2.17616
H          1.27842       -1.80197       -3.03263
H          1.87340       -2.03273       -1.36726
H          0.00540       -3.53577       -1.83942
H          0.55592       -2.66758        0.37416
Li         0.14190        2.36365        0.26961
C         -0.06898        3.94116        2.74915
C          1.18320        4.37326        3.53090
C          2.16699        3.31767        3.10874
C          1.25252        2.13481        3.00658
O          0.11302        2.59420        2.30340
H         -0.95277        4.02734        3.42397
H         -0.23326        4.59261        1.87491
H          1.49913        5.43359        3.38705
H          1.01543        4.23571        4.61990
H          1.74210        1.28098        2.49933
H          0.94232        1.80649        4.02873
H          2.50611        3.46220        2.08319
H          3.06017        3.22565        3.76502
C          2.97393        3.47742       -0.64435
C          3.54744        4.70432        0.05996
C          2.31175        5.55132        0.26982
C          1.32218        4.95590       -0.69848
O          1.55141        3.56129       -0.62385
H          3.27853        3.54576       -1.72123
H          3.38759        2.52619       -0.25796
H          4.30107        5.18507       -0.59600
H          4.04775        4.47231        1.02629
H          0.27865        5.22979       -0.44482
H          1.53091        5.32155       -1.73271
H          1.88409        5.29565        1.23826
H          2.47489        6.64742        0.29980
C         -2.74810        3.24304        0.34855
C         -3.85638        2.67072       -0.54621
C         -3.18869        2.55768       -1.89617
C         -1.97587        3.44324       -1.71088
O         -1.54725        3.16728       -0.39103
H         -2.95593        4.33153        0.51479
H         -2.69549        2.76431        1.34182
H         -4.22084        1.66380       -0.23201
H         -4.73152        3.37022       -0.54537
H         -1.20592        3.30716       -2.48725
H         -2.27121        4.51592       -1.80309
H         -2.79172        1.52908       -1.99019
H         -3.84456        2.74704       -2.77699
