152
Fixed geometry for speciation66.xyz
C -1.11116 -0.35555 -0.20880
C -0.46463 -1.72165 0.41141
C -0.27582 -1.66515 1.81327
C 0.47496 -0.33660 1.88939
C -0.45984 1.09733 1.60740
N -0.74200 1.19900 0.24700
C -0.66761 -0.61988 -1.59111
C -2.56598 -0.73331 -0.11413
C -1.82723 1.27541 2.30067
C 0.13484 2.47580 1.63010
H -2.81877 -0.94473 0.94078
H -3.11085 0.02119 -0.66729
H -2.79447 -1.71313 -0.59877
H -0.70809 -1.69046 -1.93302
H -1.38121 -0.13673 -2.19697
H 0.36860 -0.28228 -1.54094
H 1.18891 2.65426 1.87326
H -0.69876 3.16663 1.59700
H 0.50856 3.09617 2.44040
H -2.42701 0.39804 2.55982
H -2.43192 1.98806 1.72311
H -1.66118 1.91315 3.16649
H 1.01529 -0.68669 2.78544
H -1.23380 -1.77502 2.36463
H -1.02000 -2.67295 0.18922
H 0.50821 -2.03083 0.01096
H 0.32366 -2.57414 2.14227
H 1.38439 -0.33729 1.29220
Li -1.77052 2.82044 -0.53461
C -0.63272 1.71307 -3.43517
C -0.25419 2.46561 -4.68043
C -1.37855 3.45385 -4.77300
C -2.40303 2.95342 -3.75450
O -1.61091 2.45444 -2.69002
H -1.13425 0.79611 -3.88221
H 0.26236 1.39474 -2.87589
H 0.72200 2.97922 -4.55249
H -0.17918 1.75666 -5.53961
H -3.11061 3.74194 -3.44507
H -2.99776 2.11696 -4.20991
H -1.00242 4.41260 -4.37966
H -1.73377 3.64977 -5.81454
C -4.66780 1.33841 0.83110
C -5.67013 0.78754 -0.14870
C -6.26022 2.07481 -0.63921
C -5.15514 3.11926 -0.29509
O -3.99736 2.42755 0.14496
H -5.18230 1.67662 1.76399
H -4.07800 0.55306 1.23654
H -5.12568 0.32574 -0.99550
H -6.38449 0.02048 0.23455
H -4.97862 3.86900 -1.08033
H -5.55346 3.68734 0.58447
H -6.50634 1.97088 -1.70877
H -7.18222 2.29147 -0.04114
C -0.83209 6.21400 0.25599
C 0.32771 7.14681 0.84547
C 1.59086 7.07017 -0.00494
C 2.03414 5.63071 -0.04999
C 0.89604 4.72011 -0.60866
N -0.38288 4.77899 0.26520
C -1.94522 6.25487 1.23631
C -1.37539 6.92271 -1.02074
C 0.76639 4.98199 -2.14663
C 1.42205 3.34914 -0.68536
H -0.70130 7.17563 -1.78758
H -2.23903 6.35347 -1.46535
H -1.75079 7.93053 -0.74362
H -2.30290 7.28200 1.42898
H -2.74367 5.64713 0.76255
H -1.57502 5.77315 2.13791
H 1.81172 3.03628 0.24108
H 0.59665 2.73807 -1.04794
H 2.28517 3.26932 -1.35775
H 1.73921 4.77971 -2.66940
H 0.03998 4.27745 -2.55622
H 0.61063 5.97915 -2.53358
H 2.96640 5.58892 -0.64878
H 1.42553 7.48826 -1.02182
H -0.00070 8.15066 0.97604
H 0.64706 6.65752 1.75804
H 2.37395 7.69032 0.48070
H 2.27460 5.30236 0.99120
Li 1.16184 1.17623 -0.33178
C 1.26448 5.18443 5.23428
C 0.21714 5.79598 6.10718
C 0.17412 7.18394 5.54256
C 0.76747 6.98220 4.15885
O 0.89232 5.58129 3.92761
H 2.30275 5.50751 5.46838
H 1.35012 4.14882 5.41466
H -0.72970 5.27705 5.83937
H 0.36255 5.72451 7.20188
H 0.22774 7.61530 3.44410
H 1.82251 7.36953 4.14550
H -0.87562 7.53841 5.50725
H 0.82252 7.89584 6.09509
C -3.48552 3.34061 4.16248
C -4.50871 3.96609 3.25722
C -4.19326 5.43713 3.37253
C -2.92555 5.43949 4.23012
O -2.31482 4.18436 4.01309
H -3.85068 3.35874 5.21950
H -3.43551 2.25507 3.97952
H -4.16300 3.64727 2.26024
H -5.57642 3.67869 3.38090
H -2.26169 6.30162 4.06448
H -3.21866 5.50883 5.30784
H -4.00662 5.76061 2.35705
H -4.99626 6.12051 3.69869
C 3.53736 -0.22341 -1.48473
C 5.03273 -0.24463 -1.95331
C 6.02387 0.16011 -0.90540
C 5.63370 1.54941 -0.48102
C 4.19631 1.62153 0.12525
N 3.06567 1.15345 -0.91056
C 2.80317 -0.66803 -2.77848
C 3.34110 -1.39107 -0.49073
C 4.26688 0.83972 1.49290
C 4.16324 3.11451 0.57903
H 3.94969 -1.42181 0.40671
H 2.32919 -1.36806 -0.18454
H 3.52170 -2.38604 -0.94580
H 3.26535 -1.61719 -3.14648
H 1.77584 -0.99311 -2.68326
H 2.89505 0.08111 -3.58534
H 4.14802 3.79685 -0.28596
H 3.42715 3.32966 1.37701
H 5.09380 3.39715 1.12830
H 4.83461 1.41366 2.26233
H 3.29069 0.60386 1.89872
H 4.86439 -0.07811 1.53744
H 6.40543 1.87072 0.26053
H 6.06015 -0.57013 -0.07360
H 5.33033 -1.26804 -2.28290
H 5.16036 0.44202 -2.81649
H 7.05160 0.17320 -1.32553
H 5.70599 2.23179 -1.35591
Li -0.34607 4.19088 3.07088
C 1.08688 1.17894 4.12755
C -0.29426 0.48815 4.33250
C -0.58931 0.76629 5.67537
C 0.16945 2.10281 5.71362
O 0.62371 2.44141 4.39497
H 1.25602 1.20792 3.04404
H 2.02992 1.18951 3.56630
H -0.30141 -0.61799 4.30369
H -1.03578 -0.14571 3.81215
H -0.48124 2.86531 6.11567
H 1.07168 1.92380 6.37961
H -0.10321 -0.13950 6.13751
H -1.69282 0.81163 5.68084
