113
speciation43.ct
C          0.80471        0.93465       -0.74929
C          1.51870       -0.41799       -0.55961
C          0.75929       -1.57487       -1.23945
C         -0.76748       -1.59653       -0.94293
C         -1.40583       -0.18363       -1.01130
N         -0.62623        0.89786       -0.30724
C          1.43941        1.91274        0.17899
C          1.09735        1.46761       -2.17410
C         -1.58945        0.09463       -2.50129
C         -2.76555       -0.24472       -0.31898
H          0.97403        0.74023       -2.98128
H          0.50624        2.37371       -2.39544
H          2.18132        1.72455       -2.26738
H          2.52011        2.05548        0.03169
H          0.86191        2.82738       -0.02963
H          1.18074        1.63472        1.21977
H         -2.61155       -0.40443        0.76620
H         -3.29614        0.69528       -0.44839
H         -3.40696       -1.06086       -0.70689
H         -2.45132       -0.47826       -2.90075
H         -1.64293        1.16779       -2.65036
H         -0.76358       -0.25541       -3.12560
H         -1.26163       -2.29952       -1.64604
H          0.89815       -1.45031       -2.32587
H          2.57229       -0.38490       -0.92553
H          1.65184       -0.55485        0.49937
H          1.21363       -2.55170       -0.96579
H         -1.07521       -2.09047       -0.02420
Li        -0.65790        0.73495        1.97188
C         -2.57226        1.72911        4.15991
C         -3.81020        0.84600        4.07621
C         -4.34965        1.14300        2.69170
C         -3.32778        2.14406        2.16084
O         -2.11102        1.90839        2.83185
H         -2.88423        2.73121        4.55543
H         -1.80845        1.36017        4.86366
H         -3.48539       -0.20795        4.08500
H         -4.53391        0.97457        4.91045
H         -3.21877        2.16715        1.06731
H         -3.68256        3.17260        2.41523
H         -4.31397        0.19908        2.10845
H         -5.39174        1.53399        2.66222
C         -3.57799        2.50169       -3.04548
C         -4.86188        3.19311       -3.49246
C         -5.47840        3.60072       -2.17385
C         -4.70908        2.76521       -1.17530
O         -3.37149        2.80919       -1.66743
H         -3.78095        1.40231       -3.12876
H         -2.73158        2.75743       -3.71196
H         -5.48387        2.47536       -4.07804
H         -4.66742        4.10297       -4.09768
H         -4.83828        3.16475       -0.15486
H         -5.10645        1.71807       -1.18069
H         -5.16083        4.64726       -1.97728
H         -6.58843        3.55164       -2.13817
C          1.96097       -0.23402        3.93925
C          2.45905       -1.36865        4.87851
C          2.20790       -2.75295        4.29524
C          0.69652       -2.91031        4.19592
C          0.08218       -1.84147        3.27018
N          0.50469       -0.43206        3.52279
C          2.03826        1.08626        4.72392
C          2.97566       -0.09802        2.77253
C          0.42509       -2.18661        1.87284
C         -1.45067       -1.89762        3.38844
H          3.07534       -0.98038        2.12700
H          3.99757        0.05667        3.18633
H          2.81168        0.79616        2.16119
H          3.08332        1.28439        5.05911
H          1.71020        1.93984        4.09336
H          1.39919        1.05241        5.63024
H         -1.76865       -1.74138        4.43849
H         -1.90486       -1.10430        2.76257
H         -1.85297       -2.87402        3.04148
H         -0.03290       -3.14603        1.55267
H          0.01488       -1.30303        1.37925
H          1.49584       -2.28734        1.67128
H          0.43751       -3.92903        3.82037
H          2.72397       -2.89351        3.32206
H          3.54523       -1.25060        5.08182
H          1.93367       -1.31434        5.85481
H          2.60556       -3.53839        4.96910
H          0.26903       -2.81544        5.21523
Li        -1.51923        2.94999       -0.60896
C         -1.71701        6.11024       -0.16691
C         -1.38917        7.48631        0.49115
C          0.02298        7.94484        0.17626
C          0.92251        6.92801        0.80656
C          0.69743        5.42983        0.34485
N         -0.77085        4.99753        0.23212
C         -3.12909        5.75338        0.29841
C         -1.80032        6.32914       -1.70916
C          1.38473        5.24693       -1.03366
C          1.49198        4.74273        1.51312
H         -0.85857        6.64507       -2.18359
H         -2.15936        5.42478       -2.23316
H         -2.51154        7.16216       -1.93518
H         -3.85493        6.55334        0.02349
H         -3.43617        4.82965       -0.19336
H         -3.15775        5.61107        1.39613
H          1.05533        4.99901        2.49757
H          1.62313        3.69032        1.63953
H          2.54814        5.10425        1.50151
H          2.48945        5.31684       -0.96614
H          1.12016        4.28889       -1.49750
H          1.07807        6.00947       -1.76757
H          1.98950        7.23064        0.66859
H          0.22447        8.05391       -0.90817
H         -2.09020        8.28145        0.15665
H         -1.49913        7.41221        1.59944
H          0.23027        8.93177        0.65143
H          0.72052        7.03910        1.89999
Li        -0.39477       -0.10492        5.22254
