139
speciation101.ct
C         -2.41444       -1.70121       -0.08968
C         -3.75726       -1.23261        0.62703
C         -3.76117        0.08598        1.40013
C         -2.43580        0.84002        1.24638
C         -1.27310       -0.11526        1.40845
N         -1.08270       -0.95156        0.24562
C         -2.24696       -3.19989        0.22386
C         -2.74660       -1.59335       -1.57399
C         -1.44609       -0.89299        2.66146
C          0.01742        0.52887        1.53732
H         -3.60777       -1.01798       -1.87987
H         -2.07152       -0.84188       -1.94599
H         -3.13512       -2.53584       -2.02874
H         -3.19216       -3.76866        0.09808
H         -1.48986       -3.75764       -0.34284
H         -1.93628       -3.24245        1.24535
H          0.33364        0.82450        0.55771
H         -0.03481        1.32807        2.31043
H          0.75686       -0.24851        1.76700
H         -0.67145       -1.59165        2.54788
H         -1.36714       -0.25305        3.56646
H         -2.34715       -1.50757        2.69810
H         -2.30399        1.22844        0.25505
H         -4.68017        0.66330        1.21062
H         -4.20114       -2.02150        1.27426
H         -4.62000       -1.19299       -0.08370
H         -3.89785       -0.14777        2.47561
H         -2.41098        1.66761        1.98618
Li         1.08746       -2.35139        0.81912
C         -0.46775       -4.53828        2.84771
C         -1.69428       -4.12447        3.71137
C         -1.11936       -3.12111        4.66316
C          0.32938       -2.90745        4.12051
O          0.44899       -3.45044        2.76984
H          0.03988       -5.35656        3.40796
H         -0.74258       -4.96529        1.86936
H         -2.48680       -3.60935        3.13698
H         -2.26217       -4.95167        4.18617
H          0.63828       -1.84125        4.22935
H          0.99781       -3.47827        4.79846
H         -1.78077       -2.22084        4.66892
H         -1.17540       -3.40314        5.73348
C          2.92877       -3.84167       -2.23649
C          2.38992       -4.24418       -3.64069
C          1.29000       -5.24045       -3.31460
C          1.26785       -5.24628       -1.73271
O          1.94542       -4.07454       -1.13406
H          3.79677       -4.51513       -2.07623
H          3.28845       -2.80790       -2.29383
H          1.96823       -3.33797       -4.15968
H          3.08163       -4.51268       -4.46589
H          0.23873       -5.40759       -1.36398
H          1.87245       -6.14894       -1.47387
H          1.38938       -6.21812       -3.82318
H          0.32869       -4.90513       -3.78502
C          4.09445       -1.85019        1.70858
C          4.50562       -2.09208        0.27861
C          4.69955       -0.73533       -0.46868
C          4.52890        0.62370        0.31989
C          3.74526        0.54172        1.68869
N          2.98972       -0.81569        1.64982
C          5.46704       -1.58301        2.45722
C          3.54315       -3.07102        2.44847
C          4.76931        1.02972        2.83265
C          2.61363        1.56169        2.06823
H          3.24871       -2.74662        3.47635
H          2.66498       -3.47724        1.92666
H          4.29676       -3.87965        2.55661
H          5.33724       -1.40056        3.54153
H          6.12730       -2.46837        2.40200
H          6.09952       -0.81977        1.97098
H          2.81938        2.61725        1.84179
H          1.95810        1.06745        2.80662
H          2.60017        1.82080        3.15942
H          5.81978        1.17911        2.50272
H          4.68101        2.11983        3.08021
H          4.65191        0.57716        3.83456
H          4.05491        1.31324       -0.36411
H          5.60936       -0.73981       -1.11086
H          5.38731       -2.76517        0.18499
H          3.66102       -2.62081       -0.17171
H          3.89098       -0.73892       -1.21784
H          5.53941        1.06039        0.43863
Li        -0.45606        0.80382       -1.40440
C         -0.42942       -1.40981       -3.55941
C         -0.27812       -2.54260       -2.61687
C          0.40842       -1.96472       -1.44659
C          1.04690       -0.76938       -1.99477
O          0.12206       -0.30112       -2.89061
H          0.09584       -1.62562       -4.51218
H         -1.47510       -1.20648       -3.85872
H         -1.10668       -3.27483       -2.50227
H          0.45929       -3.08701       -2.97846
H          2.06380       -0.78499       -2.44066
H          1.13059       -0.08544       -1.15090
H          0.24212       -2.71811       -0.68686
H          1.40045       -2.13815       -1.05965
C         -2.79628        3.13672       -1.12863
C         -4.24396        2.74464       -0.84665
C         -4.41149        1.53391       -1.71886
C         -3.26657        1.62207       -2.68266
O         -2.20987        2.07503       -1.86127
H         -2.81721        4.03752       -1.78712
H         -2.28034        3.38870       -0.19629
H         -4.37893        2.48705        0.22063
H         -4.93656        3.57743       -1.07070
H         -3.02228        0.70224       -3.22872
H         -3.46939        2.39580       -3.47427
H         -4.13661        0.72049       -1.06307
H         -5.43181        1.29758       -2.09778
C          2.62067        3.05170       -2.39994
C          2.81925        2.03822       -3.42776
C          1.38747        1.78770       -3.96711
C          0.15678        2.28988       -2.98078
C          0.40097        2.90399       -1.40057
N          1.66639        2.28998       -1.38664
C          2.20728        4.36393       -3.22106
C          3.93595        3.62672       -1.70149
C          0.01108        4.43809       -1.49073
C          0.66251        3.02661        0.14622
H          3.65166        4.29996       -0.92879
H          4.67082        2.91691       -1.36163
H          4.54163        4.16172       -2.46479
H          2.25497        5.35816       -2.62571
H          2.89158        4.55678       -4.01562
H          1.25130        4.38919       -3.75138
H         -0.20441        2.78242        0.75853
H          1.59862        3.61744        0.41360
H          0.09575        3.68080        0.83047
H         -0.62392        4.69239       -2.35168
H         -0.69872        4.75120       -0.70578
H          0.81708        5.14393       -1.25138
H         -0.65272        1.63040       -3.22932
H          1.25413        2.30986       -4.92477
H          3.52194        2.30713       -4.26609
H          3.25186        1.13245       -2.94558
H          1.40763        0.74521       -4.33075
H         -0.37312        3.05018       -3.57502
Li         2.40519        0.66409        0.01591
