126
speciation99.ct
C         -2.11104       -1.58143       -0.11244
C         -3.24799       -0.63252       -0.52468
C         -3.57729        0.46288        0.48429
C         -2.27134        1.17931        0.88282
C         -1.23782        0.15414        1.38344
N         -0.88795       -0.79460        0.28806
C         -2.62929       -2.60239        0.88124
C         -1.69048       -2.45671       -1.22626
C         -1.78692       -0.41190        2.67344
C          0.10845        0.59770        1.79493
H         -1.42117       -1.80679       -2.00369
H         -0.81905       -2.96800       -0.84395
H         -2.42411       -3.20713       -1.58174
H         -3.32928       -3.33201        0.41494
H         -1.72692       -3.12750        1.18789
H         -3.23214       -2.22444        1.70223
H          0.67076       -0.31029        2.09159
H          0.14458        1.26359        2.68178
H          0.54042        0.97740        0.87780
H         -1.27129       -1.32678        2.63269
H         -1.56355        0.19085        3.58066
H         -2.85885       -0.58795        2.78950
H         -1.90479        1.64905       -0.04323
H         -4.27247        1.19981        0.03105
H         -4.16233       -1.18379       -0.82124
H         -2.83969       -0.08371       -1.33656
H         -4.12803        0.02707        1.33319
H         -2.47886        1.95085        1.65736
Li         1.09541       -1.85170        0.92422
C         -0.24954       -4.46066        2.66111
C         -1.61955       -4.40574        3.39942
C         -1.47684       -3.17514        4.26913
C         -0.00568       -2.71172        3.99461
O          0.36519       -3.16374        2.66745
H          0.40201       -5.12821        3.27491
H         -0.31669       -4.92580        1.65867
H         -2.47804       -4.25280        2.71893
H         -1.93323       -5.34815        3.89007
H          0.11869       -1.61998        4.14667
H          0.67788       -3.16810        4.74430
H         -2.22082       -2.53386        3.81294
H         -2.04854       -2.95529        5.20059
C          2.74923       -2.43665       -2.12963
C          2.05820       -2.70522       -3.46679
C          0.82346       -3.33252       -2.97394
C          1.26914       -3.98128       -1.67701
O          1.94849       -2.93103       -1.00087
H          3.72820       -2.97822       -2.15984
H          2.92832       -1.36781       -2.20304
H          1.83362       -1.78018       -4.06160
H          2.64570       -3.39580       -4.10720
H          0.48032       -4.45556       -1.07522
H          1.95667       -4.82991       -1.91171
H          0.28219       -2.45573       -2.67813
H          0.24279       -3.90272       -3.72839
C          4.01622       -1.56003        1.95846
C          4.47708       -1.86297        0.53676
C          4.34827       -0.57629       -0.28476
C          4.53733        0.77890        0.44833
C          3.76598        0.86838        1.83283
N          2.95359       -0.43164        1.91041
C          5.41144       -1.37910        2.69171
C          3.41143       -2.75619        2.68444
C          4.81193        1.24265        2.96466
C          2.87030        2.10571        2.10849
H          3.09880       -2.42737        3.70391
H          2.55686       -3.13160        2.11720
H          4.12993       -3.59624        2.79626
H          5.34907       -1.22323        3.78156
H          6.01953       -2.30788        2.62302
H          6.08336       -0.64647        2.18602
H          3.34540        3.07573        1.83625
H          1.93324        2.07242        1.72355
H          2.55918        2.14861        3.18390
H          5.71029        1.75872        2.55303
H          4.61214        2.13250        3.60282
H          4.66692        0.66334        3.87857
H          4.04523        1.43882       -0.23589
H          4.88534       -0.64950       -1.25714
H          5.49539       -2.30882        0.46632
H          3.86628       -2.66418        0.12121
H          3.27134       -0.54698       -0.47140
H          5.61063        1.04664        0.49653
Li        -0.23578        0.44489       -1.50140
C         -2.83778        0.53411       -3.60760
C         -3.81857       -0.59121       -3.90228
C         -2.89234       -1.70769       -4.35391
C         -1.52565       -1.02848       -4.37753
O         -1.58487       -0.09948       -3.30513
H         -2.70370        1.15601       -4.52540
H         -3.20609        1.26655       -2.85549
H         -4.34310       -0.92592       -2.98523
H         -4.57944       -0.26811       -4.63766
H         -0.69828       -1.73755       -4.34633
H         -1.38407       -0.48086       -5.33906
H         -2.88010       -2.45699       -3.54522
H         -3.20032       -2.26221       -5.25943
C          2.35410        2.97147       -2.28260
C          2.52106        1.86882       -3.33390
C          1.14904        1.10598       -3.40096
C         -0.03020        2.07403       -2.89081
C          0.05743        2.75950       -1.38291
N          1.43514        2.30037       -1.25380
C          1.81847        4.31264       -2.98539
C          3.66431        3.58314       -1.68838
C         -0.91364        3.97837       -1.76555
C          0.14128        3.33186        0.12666
H          3.38633        4.30716       -0.88443
H          4.46240        2.96170       -1.31657
H          4.22482        4.15596       -2.46092
H          1.75856        5.15038       -2.25995
H          2.52617        4.61269       -3.78842
H          0.88580        4.40771       -3.54372
H         -0.59554        2.99935        0.85588
H          1.11919        3.37412        0.60034
H          0.13511        4.43570        0.24181
H         -1.56804        3.87464       -2.65627
H         -1.75986        4.04517       -1.02836
H         -0.42944        4.96980       -1.78950
H         -1.02668        1.84822       -3.00902
H          1.01511        0.65787       -4.40778
H          2.83320        2.31155       -4.30267
H          3.30521        1.13587       -3.02958
H          1.22858        0.24359       -2.70162
H         -0.04319        2.73433       -3.75849
Li         2.27390        0.88184        0.21734
