165
speciation37.ct
C         -1.31567        1.60365       -0.94763
C         -0.93939        3.13443       -1.00223
C          0.19975        3.39299       -2.00548
C          1.40332        2.60896       -1.57838
C          1.09645        1.11815       -1.44085
N         -0.13584        0.77971       -0.47303
C         -2.43370        1.31362        0.02492
C         -2.00704        1.24605       -2.32752
C          0.83327        0.64500       -2.84859
C          2.51015        0.50765       -1.18909
H         -1.46895        1.45868       -3.25990
H         -2.34287        0.18379       -2.36677
H         -2.90993        1.88057       -2.48146
H         -3.38716        1.80795       -0.27026
H         -2.60303        0.24711       -0.04255
H         -2.13060        1.53151        1.06328
H          3.01205        0.91099       -0.29865
H          2.51040       -0.59055       -1.32448
H          3.24515        0.81570       -1.95951
H          1.70818        0.21976       -3.37962
H          0.02266       -0.02253       -2.65103
H          0.56115        1.37401       -3.62186
H          2.20354        2.78607       -2.33561
H         -0.14122        3.18380       -3.02985
H         -1.79561        3.75608       -1.32564
H         -0.59918        3.48024       -0.00086
H          0.58193        4.40724       -2.10586
H          1.81003        3.00635       -0.65487
Li        -0.13782        1.34787        2.03258
C          0.41298       -4.27977        0.74640
C          0.14891       -5.07338        2.03699
C         -0.30839       -4.06553        3.04071
C         -0.12471       -2.74367        2.33378
O          0.14273       -2.89772        0.93489
H          1.47091       -4.40258        0.43267
H         -0.26465       -4.71604        0.00656
H          1.03781       -5.65360        2.36288
H         -0.69063       -5.79284        1.90127
H         -0.89483       -1.98322        2.57413
H          0.74867       -2.35416        2.79030
H         -1.37162       -4.21623        3.27437
H          0.18419       -4.14557        4.03338
C         -2.88200       -3.33445        1.25266
C         -4.19348       -3.94746        0.86501
C         -5.04823       -2.71714        0.67731
C         -4.03612       -1.57159        0.81008
O         -2.76457       -2.13960        0.47434
H         -2.11587       -4.08832        1.08991
H         -2.93928       -3.10803        2.36449
H         -3.99519       -4.39640       -0.13377
H         -4.60571       -4.73743        1.53312
H         -4.39431       -0.72056        0.21580
H         -4.01809       -1.23194        1.88713
H         -5.44222       -2.75978       -0.35947
H         -5.88151       -2.61895        1.40560
C         -1.37409        3.18403        4.47871
C         -2.03378        4.31609        5.34358
C         -3.53837        4.50570        5.16850
C         -3.80253        4.59830        3.68824
C         -3.15778        3.43806        2.84363
N         -1.62765        3.27090        3.01681
C          0.13426        3.32408        4.74522
C         -1.68543        1.75394        5.03028
C         -4.11804        2.21712        3.19262
C         -3.52919        3.88315        1.41702
H         -2.66244        1.28641        4.91294
H         -1.07350        1.06394        4.43140
H         -1.49806        1.70875        6.10734
H          0.38764        3.78460        5.72259
H          0.48243        4.00375        3.99940
H          0.70769        2.39847        4.59191
H         -3.33347        4.93447        1.29021
H         -2.83989        3.53873        0.68119
H         -4.60459        3.77440        1.14168
H         -5.17095        2.44086        2.90059
H         -3.81539        1.26878        2.72296
H         -4.30345        2.09787        4.26565
H         -4.90191        4.72633        3.53174
H         -4.09934        3.69489        5.66064
H         -1.82732        4.21068        6.41298
H         -1.57309        5.27405        5.04777
H         -3.86493        5.44618        5.68844
H         -3.33893        5.49181        3.29895
Li        -0.80956       -1.62531       -0.47388
C          0.22833       -1.93242       -3.81999
C          0.16175       -2.98873       -4.88541
C          0.02400       -4.21784       -4.04414
C          0.16980       -3.71191       -2.60959
O         -0.40345       -2.42015       -2.59452
H          1.33321       -1.80422       -3.63547
H         -0.21404       -1.05726       -4.33587
H         -0.76088       -2.84626       -5.49550
H          1.05274       -2.93683       -5.55803
H         -0.37494       -4.41404       -1.97873
H          1.24793       -3.64725       -2.31427
H         -1.03789       -4.52799       -4.15713
H          0.69557       -5.04828       -4.34317
C          0.00868        6.53861       -0.49821
C         -0.33061        7.96666       -0.85418
C         -1.82084        8.00798       -0.61230
C         -2.11774        6.68040        0.08164
O         -0.89765        6.10269        0.50629
H         -0.24572        6.01781       -1.42517
H          1.08458        6.38965       -0.26128
H          0.18911        8.62314       -0.13656
H         -0.02681        8.29115       -1.87620
H         -2.82226        6.87620        0.90496
H         -2.56112        5.97530       -0.66578
H         -2.04205        8.86748        0.04933
H         -2.44306        8.10222       -1.52946
C          1.79154       -0.74401        4.76440
C          2.57343       -2.12997        4.77303
C          3.77187       -2.19747        3.85057
C          3.22618       -1.94886        2.47714
C          2.49062       -0.53437        2.39224
N          1.46666       -0.14713        3.39377
C          0.50351       -1.04763        5.54827
C          2.63044        0.25674        5.56997
C          3.63289        0.49721        2.25213
C          1.65725       -0.52279        1.19369
H          3.59590        0.46344        5.08675
H          2.09332        1.20573        5.70063
H          2.85578       -0.15237        6.57662
H          0.74199       -1.46833        6.54900
H         -0.07317       -0.14931        5.74465
H         -0.12844       -1.79014        5.01492
H          0.59864       -0.74052        1.32144
H          1.50667        0.54823        1.03527
H          2.02083       -1.25384        0.46115
H          4.26941        0.25053        1.37567
H          3.22533        1.50163        2.09569
H          4.31650        0.52007        3.11185
H          4.05016       -2.01356        1.72952
H          4.55586       -1.46772        4.12984
H          2.90196       -2.39709        5.80096
H          1.92234       -2.96782        4.47566
H          4.23362       -3.21482        3.88151
H          2.61206       -2.82737        2.20076
Li        -0.55926        5.35880        2.40197
C         -2.08629        7.70592        4.02775
C         -2.12290        8.98031        3.21785
C         -0.68616        9.13232        2.81429
C          0.01557        8.01201        3.53765
O         -0.93041        6.96276        3.63659
H         -1.94961        7.95570        5.10612
H         -3.07519        7.25978        4.03120
H         -2.73689        8.84485        2.29919
H         -2.53935        9.80640        3.82860
H          0.90283        7.76604        2.94057
H          0.32131        8.32424        4.56653
H         -0.63632        8.82283        1.76816
H         -0.24526       10.14738        2.88964
C          2.51707        5.70016        3.30113
C          3.62691        5.90140        2.28650
C          3.45243        4.69057        1.36821
C          2.14863        4.08534        1.90303
O          1.47532        5.15511        2.50332
H          2.83094        4.97228        4.09186
H          2.28144        6.60665        3.87073
H          3.33442        6.80405        1.70245
H          4.64475        6.06269        2.70122
H          1.51616        3.50839        1.23363
H          2.40641        3.34752        2.69985
H          3.33041        5.06485        0.32792
H          4.28970        3.95926        1.40840
