126
speciation83.ct
C         -1.76704       -0.98014        0.23362
C         -3.16336       -0.96031       -0.48096
C         -3.95094        0.25755       -0.11470
C         -3.12191        1.39293       -0.63130
C         -1.67933        1.48295       -0.02465
N         -0.85744        0.20948       -0.00215
C         -1.96386       -1.29003        1.72599
C         -1.06303       -2.06726       -0.38833
C         -1.76444        2.03851        1.39853
C         -0.99936        2.49602       -0.93545
H         -0.96206       -1.80787       -1.45774
H         -0.12865       -2.17667        0.17747
H         -1.61904       -2.98789       -0.39236
H         -2.39542       -2.31479        1.86170
H         -0.98899       -1.21390        2.22233
H         -2.67343       -0.63955        2.26191
H         -1.67813        3.05463       -1.61601
H         -0.57260        3.31503       -0.32824
H         -0.34623        1.93435       -1.63341
H         -0.73682        2.13972        1.72165
H         -2.21533        3.04484        1.45096
H         -2.30973        1.39344        2.10193
H         -3.05108        1.25972       -1.73394
H         -4.92524        0.24621       -0.64929
H         -3.75977       -1.86700       -0.21723
H         -3.05142       -0.98260       -1.58943
H         -4.15392        0.33411        0.96851
H         -3.66031        2.35184       -0.45689
Li         1.44578       -0.19890        0.76191
C          0.62465        1.31283        3.92135
C          1.50650        2.46031        4.43043
C          2.86005        1.80767        4.48679
C          2.57421        0.38171        4.00282
O          1.43251        0.43192        3.10950
H          0.30160        0.74283        4.82947
H         -0.35527        1.62432        3.58038
H          1.56254        3.31376        3.72754
H          1.16647        2.90024        5.39137
H          3.51494       -0.04809        3.61728
H          2.30977       -0.24539        4.89207
H          3.51412        2.33720        3.77071
H          3.37489        1.86281        5.46933
C         -2.69435       -4.97726        0.34502
C         -3.45845       -5.99782        1.17090
C         -2.34677       -6.88801        1.67482
C         -1.12987       -6.42477        0.88853
O         -1.30488       -5.03812        0.72257
H         -2.76569       -5.27818       -0.73429
H         -3.21622       -4.00508        0.42009
H         -3.96114       -5.51346        2.04035
H         -4.22755       -6.50658        0.54508
H         -0.18467       -6.66448        1.40859
H         -1.11456       -6.91116       -0.11788
H         -2.15519       -6.59686        2.71776
H         -2.57216       -7.97303        1.68878
C          3.17481        2.79742       -1.04351
C          1.96504        3.25717       -0.35975
C          1.86468        2.29552        0.91432
C          3.18424        1.26358        1.13656
C          4.02819        0.73195       -0.12916
N          3.01574        1.28131       -0.91022
C          4.24812        3.69034       -0.26268
C          3.39702        3.10517       -2.53882
C          5.52538        1.13197        0.25260
C          4.48546       -0.14085       -1.37040
H          4.39124        2.68651       -2.82561
H          2.63454        2.61659       -3.17705
H          3.41923        4.19319       -2.75293
H          5.31616        3.56311       -0.43544
H          4.11674        4.74503       -0.59586
H          4.07887        3.78264        0.83510
H          5.05522       -1.03178       -1.09726
H          3.77784       -0.32147       -2.22224
H          5.18563        0.43560       -2.02275
H          5.71702        1.44323        1.29721
H          6.16706        0.21987        0.29169
H          6.07275        1.71950       -0.50196
H          3.02873        0.35462        1.66114
H          1.45732        2.84454        1.75664
H          1.89633        4.35033       -0.14293
H          1.25722        3.10439       -1.15661
H          1.03379        1.65725        0.65740
H          3.80616        1.90565        1.76378
Li         1.05465        0.50786       -0.79418
C          0.10340       -2.41779        4.19161
C          0.46472       -3.18376        5.46164
C         -0.56081       -4.30448        5.45335
C         -1.40729       -3.98604        4.23120
O         -0.53836       -3.32611        3.33722
H         -0.62232       -1.61475        4.45158
H          0.89449       -1.86763        3.69823
H          1.46660       -3.66219        5.41911
H          0.44410       -2.50912        6.34142
H         -1.90268       -4.86761        3.82127
H         -2.22779       -3.27705        4.50380
H         -0.02166       -5.25080        5.22190
H         -1.13097       -4.43279        6.39803
C          3.32973       -3.20957        1.65745
C          3.68444       -4.75563        1.60550
C          3.90227       -5.30845        0.22968
C          2.61063       -5.05848       -0.50003
C          2.28587       -3.54604       -0.61663
N          2.11923       -2.78100        0.74731
C          3.03836       -3.06550        3.15835
C          4.64868       -2.38722        1.46831
C          3.31812       -2.91179       -1.50763
C          1.05148       -3.52384       -1.48950
H          5.18409       -2.49782        0.52742
H          4.48719       -1.31969        1.67376
H          5.42203       -2.71961        2.20168
H          3.89493       -3.41048        3.79291
H          2.90062       -2.03289        3.39524
H          2.18140       -3.69881        3.39328
H          0.23097       -4.06085       -0.99838
H          0.88704       -2.47678       -1.79162
H          1.19750       -4.04223       -2.46407
H          3.33148       -3.31938       -2.54394
H          2.93489       -1.91193       -1.52944
H          4.35499       -3.00158       -1.20272
H          2.72364       -5.51885       -1.50998
H          4.79402       -4.84228       -0.25148
H          4.61359       -4.98062        2.21479
H          2.87340       -5.35979        2.05700
H          4.11729       -6.39718        0.28598
H          1.79212       -5.59315        0.02292
Li         0.19262       -3.76536        1.53272
