152
speciation93.ct
C         -1.44623       -1.04376        1.15908
C         -2.86065       -1.07989        0.61936
C         -3.73159       -0.02903        1.26724
C         -3.03752        1.36635        1.33267
C         -1.57621        1.33624        1.90523
N         -0.69610        0.29063        1.12522
C         -1.47087       -1.72347        2.53221
C         -0.62072       -1.89631        0.33330
C         -1.71747        1.14996        3.44912
C         -0.97927        2.77176        1.90360
H         -0.59319       -1.52934       -0.71440
H          0.38324       -1.78364        0.79906
H         -1.04605       -2.93351        0.31730
H         -1.61817       -2.82071        2.45353
H         -0.55688       -1.44810        3.01105
H         -2.32647       -1.46336        3.15738
H         -0.68424        3.10571        0.96282
H         -1.66274        3.55746        2.28685
H         -0.10698        2.85463        2.56395
H         -0.74076        1.09206        3.93866
H         -2.24111        2.02998        3.88952
H         -2.36830        0.37088        3.82418
H         -3.04168        1.83727        0.37129
H         -4.69287        0.03075        0.70294
H         -3.31358       -2.10074        0.75335
H         -2.87006       -1.01918       -0.45100
H         -3.97480       -0.35347        2.28317
H         -3.69582        2.02961        1.92620
Li         0.95935        0.09332       -0.79799
C          1.24363       -3.53636       -0.67955
C          2.34227       -4.53419       -0.97477
C          2.96048       -3.92196       -2.18973
C          2.00811       -2.76834       -2.56384
O          1.51344       -2.24497       -1.32947
H          0.29901       -3.96282       -1.07481
H          1.21273       -3.58134        0.43405
H          1.88878       -5.55015       -1.08930
H          3.11156       -4.58283       -0.16748
H          2.53077       -2.03919       -3.20007
H          1.15162       -3.20849       -3.13520
H          3.91036       -3.45622       -1.84909
H          3.21190       -4.68836       -2.96055
C          2.04162       -2.64013        3.26601
C          1.02997       -3.20593        4.23467
C          0.70568       -2.01565        5.13059
C          1.48857       -0.88943        4.47956
O          1.69830       -1.26786        3.13169
H          3.06962       -2.70767        3.69357
H          2.05644       -3.21338        2.32694
H          0.13859       -3.44538        3.62656
H          1.31927       -4.14175        4.74664
H          1.01668        0.09216        4.62346
H          2.47674       -0.83061        4.98765
H         -0.38757       -1.81554        5.09242
H          1.00499       -2.11576        6.18967
C          3.16393        2.28702        0.38745
C          1.96224        2.47122        1.23843
C          2.21320        1.73377        2.60359
C          3.47322        0.74719        2.61479
C          3.88097        0.10969        1.22595
N          3.06380        0.78405        0.21881
C          4.24704        3.20927        1.15248
C          3.28377        2.78907       -1.01855
C          5.43544        0.21768        1.05371
C          3.62907       -1.37866        0.98208
H          4.35331        2.69508       -1.31336
H          2.70017        2.11867       -1.66516
H          3.04733        3.86445       -1.09820
H          5.31747        3.11981        0.92926
H          4.05736        4.27071        0.87465
H          4.12928        3.33425        2.24721
H          4.14861       -2.02480        1.71436
H          2.56420       -1.60005        0.89737
H          4.02583       -1.65224       -0.02638
H          5.92629       -0.13605        1.99091
H          5.84255       -0.38185        0.21562
H          5.83044        1.20787        0.87472
H          3.62419        0.09704        3.48005
H          2.32804        2.48644        3.40851
H          1.63946        3.53205        1.32512
H          1.16727        1.87605        0.77531
H          1.27457        1.22917        2.84967
H          4.29591        1.41975        2.87870
Li         1.38589       -0.04696        1.47970
C          4.17375        2.64634       -5.36963
C          5.39267        1.92001       -5.89143
C          5.83488        1.15235       -4.68963
C          4.52413        0.98558       -3.89719
O          3.48171        1.73681       -4.52429
H          4.45831        3.54701       -4.77484
H          3.60447        2.94880       -6.25543
H          5.04179        1.19133       -6.64575
H          6.17608        2.55883       -6.36356
H          4.25849       -0.07897       -3.78325
H          4.73046        1.39774       -2.89739
H          6.56445        1.76494       -4.10664
H          6.32506        0.19546       -4.97545
C          2.56944       -0.96960       -6.45613
C          1.81817       -1.25001       -7.77292
C          0.43330       -1.58474       -7.29942
C          0.67479       -1.86172       -5.84395
O          1.61928       -0.87274       -5.40648
H          3.21727       -1.85196       -6.22782
H          3.23987       -0.10166       -6.53710
H          1.76221       -0.37574       -8.45895
H          2.28394       -2.11676       -8.29049
H         -0.26435       -1.96690       -5.29367
H          1.12001       -2.87544       -5.71638
H         -0.16473       -0.67389       -7.35169
H         -0.12592       -2.34628       -7.88152
C          0.00072        3.10425       -2.69824
C         -1.16215        3.96629       -3.34377
C         -2.51548        3.28561       -3.43898
C         -2.38509        1.82027       -3.92325
C         -1.31217        1.00243       -3.10199
N          0.09377        1.56090       -2.89838
C          1.30257        3.82977       -3.10713
C         -0.19885        3.35214       -1.26504
C         -2.05261        0.75011       -1.83975
C         -1.12401       -0.33926       -3.72868
H         -1.18899        3.00912       -0.96553
H          0.59336        2.81309       -0.81738
H         -0.13920        4.42147       -0.96004
H          1.54722        4.69178       -2.44790
H          2.13092        3.15281       -3.26064
H          1.22373        4.31102       -4.07590
H         -0.61553       -0.07527       -4.65694
H         -0.48015       -0.98498       -3.08966
H         -2.07847       -0.87136       -3.94094
H         -2.93665        0.11232       -2.06930
H         -1.36252        0.37180       -1.10780
H         -2.54786        1.62098       -1.48047
H         -3.40472        1.37673       -3.83909
H         -2.97808        3.35171       -2.43866
H         -1.29275        4.94460       -2.82273
H         -0.88402        4.41825       -4.28147
H         -3.20056        3.87067       -4.09140
H         -2.27715        1.65593       -4.98317
Li         1.47508        1.13900       -4.82343
C          1.15648        3.48662       -6.79754
C         -0.19585        4.21553       -6.87751
C         -1.12341        3.10746       -6.59888
C         -0.38850        1.88557       -6.99709
O          0.92848        2.09405       -6.55882
H          1.72411        3.63875       -7.73265
H          1.76454        3.89437       -5.98119
H         -0.00359        4.95394       -6.08418
H         -0.82003        5.13379       -6.94453
H         -0.86242        1.03374       -6.49183
H         -0.41052        1.72782       -8.09506
H         -1.03821        3.01481       -5.56470
H         -2.18807        3.19239       -6.90827
