85
speciation0.ct
O          1.02549        0.04590       -0.08511
C          0.33363        0.05325        1.15565
C          0.65141        1.33251        1.90555
C         -1.17508        0.04532        0.87008
C          0.61646       -1.22029        1.96667
H          0.30971        2.22445        1.32922
H         -1.47849       -0.87332        0.32658
H         -1.74813        0.08609        1.82695
H         -1.47340        0.93202        0.25166
H          0.16337        1.34588        2.90586
H          1.72037        1.40774        2.00780
H          0.37936       -2.11614        1.37951
H          1.65313       -1.29362        2.28226
H          0.02083       -1.22593        2.90318
U          3.64549        0.04590       -0.08511
O          3.64549        2.32914        1.19988
O          3.80839       -0.99925        1.99030
C          4.20480       -0.40214        3.27157
C          3.71662        3.48320        0.38893
C          2.42752        3.68823       -0.44136
C          3.80289        4.69974        1.32863
C          4.99933        3.45171       -0.46146
C          3.40144        0.83938        3.78392
C          3.89670       -1.47778        4.35579
H          1.54969        3.80125        0.22594
H          2.50912        4.61089       -1.05579
H          2.15740        2.87818       -1.11254
H          4.69469        4.63438        1.98679
H          3.85962        5.64616        0.74613
H          2.90064        4.74872        1.97849
H          5.89135        3.41467        0.20012
H          5.05981        2.56804       -1.11247
H          5.07089        4.36202       -1.09407
H          2.33721        0.63517        3.88560
H          3.75405        1.08179        4.81514
C          5.68570       -0.07667        3.34442
H          3.63928        1.75954        3.27182
H          6.24240       -0.99727        3.49690
H          6.01213        0.53143        2.47615
H          5.94546        0.50307        4.27490
H          4.43096       -2.42525        4.12803
H          4.22173       -1.12954        5.35938
H          2.81253       -1.69587        4.40182
O          6.26549        0.04590       -0.08511
C          7.32959       -0.95718        0.12916
C          7.76487       -1.71710       -1.12783
C          8.66770       -0.26908        0.47015
C          7.05530       -1.95243        1.30757
H          8.00015       -1.03925       -1.98599
H          8.62484        0.32284        1.40359
H          9.45977       -1.04034        0.63189
H          9.02443        0.37728       -0.36224
H          8.63147       -2.39171       -0.94704
H          7.08414       -2.42175       -1.41969
H          7.61052       -1.64281        2.19835
H          5.98324       -2.07478        1.52864
H          7.51099       -2.94254        1.10299
O          3.64549       -2.23734       -1.37010
C          4.59646       -3.18235       -1.96408
C          5.38342       -3.89733       -0.85743
C          3.84258       -4.32209       -2.71560
C          5.43258       -2.61306       -3.13270
H          4.93958       -4.61438       -0.14092
H          3.23272       -3.95381       -3.54641
H          4.62323       -5.01523       -3.17121
H          3.24260       -4.96702       -2.04216
H          6.27707       -4.41117       -1.30040
H          5.61603       -3.09667       -0.19683
H          4.76433       -2.31367       -3.97928
H          6.11666       -1.77527       -2.99346
H          6.13306       -3.38059       -3.55201
O          3.35601        1.33093       -2.04846
C          3.46610        0.84876       -3.39255
C          2.35313       -0.16640       -3.69398
C          3.34807        1.98449       -4.45195
C          4.83643        0.30755       -3.55154
H          1.35838        0.32664       -3.63279
H          4.17439        2.72237       -4.37666
H          3.42334        1.54761       -5.48646
H          2.38319        2.52214       -4.40345
H          2.45419       -0.57214       -4.72947
H          2.36738       -1.01366       -2.99183
H          5.63094        1.08453       -3.47288
H          4.90344       -0.29246       -2.64677
H          4.94286       -0.20508       -4.53421
