157
Fixed geometry for speciation8.xyz
O 0.86300 -1.24700 0.27000
C 1.81158 -2.53546 0.59831
C 2.60049 -2.29410 1.89515
C 1.24529 -4.11054 0.64644
C 3.07834 -2.88958 -0.25885
H 1.99951 -2.04821 2.66685
H 0.56743 -4.41945 -0.16402
H 0.68424 -4.59207 1.46783
H 2.05266 -4.84777 0.81930
H 3.13414 -3.19773 2.26654
H 3.35514 -1.49907 1.82222
H 2.89863 -3.56755 -1.09978
H 3.76823 -2.07397 -0.44449
H 3.74768 -3.63344 0.24738
U 1.62100 0.00000 -0.20800
O 4.06656 0.00000 -1.14801
O 2.91428 2.12760 -1.02355
C 3.29263 3.61092 -0.59761
C 4.67870 -0.05151 -2.53973
C 4.43130 1.20554 -3.39812
C 6.19422 -0.25096 -2.33798
C 4.42920 -1.19932 -3.57549
C 3.85381 3.93142 0.85289
C 4.32983 4.20555 -1.58461
H 4.61257 2.11509 -2.85503
H 5.07552 1.21190 -4.30402
H 3.42395 1.20839 -3.84655
H 6.36615 -1.23082 -1.83364
H 6.73661 -0.31427 -3.31748
H 6.66113 0.56426 -1.77053
H 4.54591 -2.22684 -3.16124
H 3.55276 -0.98826 -4.21213
H 5.12707 -1.20038 -4.43860
H 4.80208 3.42541 1.08588
H 4.06465 5.01817 0.99884
C 2.26317 4.75926 -0.76109
H 3.13712 3.77349 1.68047
H 2.08939 5.04748 -1.74028
H 1.34442 4.61435 -0.43106
H 2.50516 5.72977 -0.26956
H 3.89512 4.20569 -2.61722
H 4.52815 5.29168 -1.36387
H 5.29857 3.70308 -1.56457
O -1.25900 0.00000 0.89900
C -1.37909 0.93083 2.35262
C -1.72417 2.56591 2.42366
C -2.61399 0.81678 3.44416
C -0.21565 0.90936 3.41622
H -2.72441 2.97857 2.53777
H -3.02421 -0.16382 3.70173
H -2.46944 0.33969 4.42301
H -3.56028 1.43601 3.43338
H -1.45094 2.96456 3.43410
H -1.41029 3.45834 1.91278
H -0.45585 0.31897 4.29350
H 0.43029 1.78042 3.57982
H -0.57341 1.20568 4.43025
O -3.17515 -0.70912 -0.56520
C -3.98642 -2.07676 -0.56759
C -3.92345 -3.00714 0.71049
C -5.53161 -1.72592 -0.78810
C -3.85747 -3.20030 -1.69107
H -4.17654 -2.63415 1.71169
H -5.68956 -0.90727 -1.52184
H -6.16182 -2.57063 -1.14195
H -6.13487 -1.56090 0.11085
H -4.72409 -3.79078 0.63186
H -2.96657 -3.55553 0.77163
H -4.30156 -2.96079 -2.68879
H -2.85333 -3.64888 -1.75250
H -4.55670 -4.05243 -1.48981
U -0.63100 -1.04800 -0.03900
O -0.29980 -2.82798 1.85477
O 0.43721 -2.83061 -1.63450
C 0.89924 -3.22936 -2.99866
C -0.60111 -2.86215 3.29723
C -2.08254 -2.69760 3.57388
C -0.19784 -4.20772 3.93042
C 0.20648 -1.89811 4.14450
C 1.98215 -2.31637 -3.24173
C 1.27444 -4.72933 -2.94152
H -2.66940 -3.51302 3.12612
H -2.29244 -2.69043 4.67182
H -2.39776 -1.77689 3.13725
H 0.89619 -4.37986 3.80979
H -0.39039 -4.18132 5.03432
H -0.75650 -5.05471 3.50214
H 1.19727 -2.22654 4.52095
H 0.47097 -1.16856 3.42534
H -0.31400 -1.57907 5.07728
H 2.04920 -1.75884 -2.30979
H 2.78994 -2.35433 -2.57156
C 0.22697 -3.21355 -4.46587
H 1.60871 -1.36835 -3.58755
H -0.75925 -3.70017 -4.55172
H 0.21963 -2.26210 -5.03712
H 0.91387 -3.69397 -5.20584
H 0.33983 -5.32698 -3.07600
H 1.94299 -5.00691 -3.79096
H 1.74639 -5.08198 -2.01941
O 0.86400 1.24700 0.27000
C 1.30065 1.84224 0.11031
C 1.40506 0.94401 -1.99460
C 0.63486 2.97289 0.87992
C 2.52556 1.44283 1.29033
H 0.58662 0.75945 -2.49337
H 0.51872 2.73336 1.90041
H 1.10928 3.88604 1.30648
H -0.30999 3.22597 0.38371
H 1.78014 1.65686 -2.79820
H 2.06002 0.14827 -2.17731
H 2.28971 1.67114 2.35091
H 2.78687 0.40385 1.38776
H 3.57146 1.66435 1.08806
O -0.82600 0.00000 -1.15400
C -1.61690 0.00502 -2.58196
C -3.09709 -0.47253 -2.95979
C -1.70935 1.29897 -3.31838
C -0.90996 -0.81576 -3.59256
H -3.97231 0.06022 -2.54704
H -0.76269 1.82002 -3.49761
H -2.06402 1.22665 -4.38531
H -2.57021 1.78492 -2.86806
H -3.39561 -0.41716 -4.03703
H -3.06345 -1.49001 -2.85257
H -0.00948 -0.36663 -4.01597
H -0.94959 -1.77019 -3.09759
H -1.43624 -0.95851 -4.57554
U -0.63100 1.04800 -0.03900
O -3.17524 0.70933 -0.56487
O 0.43721 2.83061 -1.63450
C -0.41266 4.08498 -2.11858
C -4.17433 1.16772 0.52179
C -3.94971 2.67853 0.59524
C -5.77609 1.25168 0.51402
C -4.19302 0.01888 1.61755
C -0.86583 5.17148 -1.02295
C 0.27747 4.78443 -3.37522
H -4.43456 3.15618 -0.28091
H -4.44117 3.16143 1.47520
H -2.91143 2.95427 0.39763
H -6.41264 0.35920 0.57698
H -6.05669 1.64999 1.54109
H -6.26450 1.93051 -0.19156
H -4.79964 -0.78113 1.32876
H -3.27415 -0.56471 1.70559
H -4.76771 0.07966 2.56506
H -0.16439 5.82883 -0.49697
H -1.48770 5.98435 -1.46440
C -1.84030 3.94463 -2.74861
H -1.55691 4.72545 -0.27638
H -1.85694 3.57337 -3.79711
H -2.57429 3.55364 -2.01632
H -2.31634 4.90983 -3.03437
H 0.39912 4.04115 -4.18993
H -0.35458 5.61709 -3.76439
H 1.23066 5.31609 -3.39624
