128
speciation2.ct
O         -0.13084        1.40090        0.09222
C          0.45868        2.66483        0.40627
C          1.33015        2.77435        1.67842
C          1.27138        3.16340       -0.80380
C         -0.67163        3.68184        0.42706
H          2.20118        3.45666        1.54996
H          2.29468        3.12266       -0.58801
H          1.16107        4.25756       -1.03833
H          1.10524        2.53752       -1.67584
H          0.79490        3.00466        2.60832
H          1.84282        1.86954        1.86292
H         -1.02413        4.01413       -0.56407
H         -1.53460        3.17842        0.80728
H         -0.37343        4.61392        0.93609
U         -1.07652       -0.25919        1.24072
O         -1.85735        1.79803        2.56462
O         -2.79416       -1.64510        1.86982
C         -3.89027       -0.85146        2.32530
C         -2.67544        3.06170        2.94468
C         -1.69894        4.07992        3.58677
C         -3.56312        3.98022        1.95500
C         -3.71021        2.73515        4.02873
C         -4.10091        0.32556        1.44264
C         -5.24522       -1.58078        2.24876
H         -1.17153        4.70544        2.85071
H         -2.23750        4.84432        4.19809
H         -0.96902        3.56780        4.22978
H         -4.52499        3.53731        1.60926
H         -3.93481        4.88153        2.52475
H         -3.09156        4.51782        1.10440
H         -4.59644        2.24467        3.58453
H         -3.25914        2.16535        4.85022
H         -4.14545        3.66494        4.47353
H         -4.33813       -0.17696        0.51814
H         -4.90325        1.03125        1.73009
C         -3.61350       -0.41805        3.74456
H         -3.25012        0.93155        1.28475
H         -3.52583       -1.30253        4.39442
H         -2.67148        0.13899        3.79837
H         -4.42774        0.21356        4.12212
H         -5.25275       -2.48682        2.86673
H         -6.04484       -0.87725        2.59087
H         -5.50309       -1.85138        1.19662
O         -0.33300       -1.00500       -0.17300
C         -0.77268       -1.31621       -1.49843
C         -0.57152       -0.09590       -2.44189
C          0.08723       -2.49583       -1.85840
C         -2.17904       -2.02813       -1.63035
H          0.29126        0.50817       -2.21678
H         -0.19896       -3.36335       -1.22591
H          0.09864       -2.80611       -2.91796
H          1.05459       -2.29335       -1.49487
H         -0.64130       -0.35629       -3.51649
H         -1.14756        0.78157       -2.24099
H         -2.24290       -2.91335       -0.95613
H         -3.12296       -1.52251       -1.42254
H         -2.29468       -2.39742       -2.67621
O          0.95960       -1.90173        1.60771
C          2.13505       -2.84717        0.93516
C          3.25243       -2.05022        0.18220
C          3.09728       -3.65052        1.92290
C          1.82397       -4.10204       -0.03757
H          4.01913       -1.65848        0.86929
H          2.56965       -4.45757        2.45657
H          3.94496       -4.16955        1.37450
H          3.73887       -3.04246        2.58689
H          3.83531       -2.66837       -0.56508
H          2.92280       -1.21023       -0.36063
H          1.07648       -4.81571        0.33817
H          1.82356       -4.02278       -1.13937
H          2.74100       -4.73344       -0.21577
U          1.00600       -0.33400        0.17300
O          2.02331       -0.63550       -2.17928
O          3.28824        0.80968        0.76273
C          4.58798        1.13580        0.15093
C          2.55598       -0.20985       -3.51375
C          4.09424       -0.29944       -3.53801
C          2.15755       -1.12758       -4.74029
C          2.11395        1.19399       -3.96540
C          4.48246        2.22270       -0.92135
C          5.47668        1.74533        1.26635
H          4.42532       -1.34226       -3.32832
H          4.51504       -0.02327       -4.53265
H          4.55917        0.40694       -2.86209
H          1.08965       -1.08513       -5.03353
H          2.68810       -0.75995       -5.66531
H          2.48374       -2.18545       -4.65573
H          1.03458        1.21914       -4.22374
H          2.34616        1.95346       -3.22977
H          2.65384        1.50010       -4.89124
H          4.25401        3.20421       -0.46592
H          5.44966        2.41575       -1.42929
C          5.47736       -0.02278       -0.39785
H          3.74718        1.93130       -1.67481
H          5.86671       -0.68459        0.40042
H          5.02144       -0.66018       -1.15544
H          6.40044        0.40695       -0.86095
H          5.78239        0.97222        2.00429
H          6.41483        2.17478        0.83909
H          4.95168        2.55195        1.81674
O         -2.58088        0.41990       -0.66943
C         -3.56854        1.16821       -1.54017
C         -3.36630        2.65723       -1.37238
C         -3.42979        0.90449       -3.10048
C         -5.11420        0.87952       -1.37484
H         -2.35372        2.91392       -1.71780
H         -3.60123       -0.15824       -3.37359
H         -4.20014        1.48097       -3.67361
H         -2.52238        1.27708       -3.60931
H         -4.08415        3.25440       -1.98270
H         -3.52901        2.90185       -0.32597
H         -5.35668       -0.18518       -1.59643
H         -5.57273        1.20122       -0.42771
H         -5.71920        1.47756       -2.10214
O          0.57001        0.30960        2.49699
C          0.64782       -0.59042        3.70955
C          2.05457       -1.15954        4.04160
C          0.31741        0.25365        4.94551
C         -0.37262       -1.81900        3.80359
H          2.85427       -0.40476        3.98157
H         -0.70850        0.66670        4.88496
H          0.36314       -0.36788        5.87338
H          1.05289        1.07178        5.05090
H          2.07417       -1.65779        5.03613
H          2.28559       -1.98303        3.42562
H         -1.38374       -1.48923        3.69009
H         -0.30764       -2.69119        3.12228
H         -0.31989       -2.32667        4.78819
