171
Fixed geometry for speciation10.xyz
O -1.25900 0.00000 0.89900
C -1.83192 0.42710 2.36008
C -2.37855 1.95011 2.65746
C -3.01806 -0.48249 2.66595
C -1.15184 0.24835 3.74944
H -3.32509 2.00618 3.24807
H -3.67349 0.19125 3.28312
H -3.36752 -0.64764 3.72178
H -3.71412 -0.44513 1.86480
H -1.86190 2.54519 3.42010
H -2.44302 2.66300 1.81881
H -0.77037 -0.74082 4.05609
H -0.43273 0.98687 3.70661
H -1.74611 0.58198 4.63423
U 1.62100 0.00000 -0.20800
O 4.06656 0.00000 -1.14801
O 2.91428 2.12760 -1.02355
C 4.32548 2.36673 -1.57037
C 4.85185 -1.24761 -1.44338
C 4.13767 -2.15116 -2.41957
C 6.24827 -0.92586 -2.07283
C 5.24759 -2.16091 -0.25960
C 4.48737 1.78788 -3.03956
C 4.72075 3.87312 -1.73741
H 4.02638 -1.60664 -3.36896
H 4.73169 -3.07181 -2.63497
H 3.17895 -2.47912 -1.96368
H 6.89608 -0.32207 -1.40881
H 6.83188 -1.86689 -2.23553
H 6.19343 -0.46370 -3.07237
H 5.73364 -1.60099 0.57220
H 4.39580 -2.81160 -0.01909
H 5.97586 -2.95517 -0.53423
H 3.77765 2.25448 -3.74736
H 5.50865 1.97153 -3.43817
C 5.53233 1.96149 -0.59105
H 4.31802 0.71417 -3.20767
H 5.55658 2.59361 0.31496
H 5.66760 0.96786 -0.14187
H 6.50097 2.09777 -1.13212
H 4.71480 4.40490 -0.76293
H 5.76733 3.93765 -2.12770
H 4.22663 4.47516 -2.50364
O 0.86300 -1.24700 0.27000
C 1.71007 -1.38876 1.66851
C 1.26479 -0.32148 2.51897
C 1.77970 -2.53806 2.87763
C 3.26542 -1.28692 1.63465
H 0.31265 -0.68128 2.39713
H 2.06701 -3.54294 2.59233
H 2.52914 -2.34202 3.68380
H 0.92413 -2.53613 3.59312
H 1.61852 -0.32462 3.57657
H 1.05250 0.66257 2.26183
H 3.75633 -2.27858 1.72347
H 3.75863 -0.67184 0.93683
H 3.68048 -0.88517 2.59503
O -3.17515 -0.70912 -0.56520
C -4.15343 -1.86913 -0.31988
C -4.26375 -2.65309 1.03094
C -5.59472 -1.23892 -0.44447
C -4.14246 -3.03865 -1.36299
H -4.55596 -2.20244 1.98773
H -6.05646 -0.99481 0.54132
H -6.33189 -1.93100 -0.91525
H -5.61805 -0.31016 -1.04408
H -5.13255 -3.35425 0.98928
H -3.37851 -3.21620 1.17156
H -4.38646 -2.74618 -2.40031
H -3.20984 -3.62431 -1.30869
H -4.96494 -3.76481 -1.14847
U -0.63100 -1.04800 -0.03900
O -0.29980 -2.82798 1.85477
O 0.43721 -2.83061 -1.63450
C 0.36737 -3.12295 -3.02102
C -0.36006 -4.31216 1.72430
C 0.76707 -4.96106 0.84200
C -0.28760 -4.90716 3.18583
C -1.64712 -4.94550 1.15352
C 1.15310 -2.01755 -3.73279
C 1.17802 -4.38051 -3.36180
H 1.79073 -4.57251 0.91831
H 0.85213 -6.04579 1.10109
H 0.52225 -4.93536 -0.23588
H -1.09290 -5.64837 3.40928
H 0.64613 -5.46779 3.39656
H -0.47040 -4.13858 3.96378
H -2.50311 -4.85221 1.84348
H -1.84613 -4.62865 0.11486
H -1.52656 -6.05746 1.11222
H 0.94664 -1.77692 -4.77914
H 2.19597 -2.22038 -3.89347
C -1.06290 -3.59496 -3.44885
H 1.02691 -1.17193 -3.08348
H -1.37055 -4.47512 -2.84567
H -1.91755 -2.98317 -3.35116
H -1.08954 -3.84936 -4.52653
H 0.72373 -5.29866 -2.94282
H 1.19333 -4.47493 -4.47681
H 2.22080 -4.31389 -3.00428
O 0.86400 1.24700 0.27000
C 1.30342 2.05302 0.10129
C 1.41180 1.02443 -1.97643
C 1.07745 3.75744 0.28760
C 2.57931 2.02798 1.22851
H 0.53952 0.88810 -2.56897
H 0.81199 4.50284 1.03037
H 1.90255 4.29861 -0.19224
H 0.02691 3.96185 0.05489
H 1.87372 1.59228 -2.81063
H 2.08902 0.15838 -2.13513
H 3.39133 1.77952 1.93651
H 3.08373 1.14322 0.89169
H 3.22776 2.89324 0.96243
O -0.82600 0.00000 -1.15400
C -1.63047 0.11374 -2.65321
C -2.97255 -0.60512 -2.92414
C -2.01729 1.50153 -3.24477
C -0.95741 -0.34637 -4.04373
H -3.87693 -0.07619 -2.56745
H -1.11645 1.97947 -3.56178
H -2.55953 1.43955 -4.23485
H -2.83087 2.08552 -2.83637
H -3.31896 -0.81301 -3.96140
H -2.76497 -1.53105 -2.49357
H -0.05314 0.18546 -4.40888
H -1.00661 -1.38682 -4.26026
H -1.57520 -0.19563 -4.97123
U -0.63100 1.04800 -0.03900
O -0.29980 2.82798 1.85477
O -3.17524 0.70933 -0.56487
C -3.92236 2.04124 -0.41798
C 0.76178 3.25264 3.08884
C 2.15076 4.15568 2.87390
C 0.06358 4.19915 4.13420
C 1.45892 2.21717 4.12014
C -2.91248 3.21113 -0.61809
C -5.30780 2.55906 -1.07298
H 2.36610 4.90772 2.09637
H 2.39882 4.77233 3.75922
H 3.10642 3.59508 2.96414
H -0.82954 3.81110 4.63544
H 0.72159 4.35682 5.03517
H -0.04204 5.24135 3.77506
H 0.88802 1.68568 4.90048
H 2.26255 1.61173 3.69654
H 2.12209 2.73169 4.85320
H -3.33077 4.01963 -1.27338
H -2.19337 3.09547 -1.42608
C -4.56349 2.06667 0.95320
H -1.90686 2.77208 -0.61804
H -5.48508 1.48485 1.14256
H -4.05494 1.35918 1.41379
H -4.59995 3.06991 1.44218
H -6.28154 2.15202 -0.66592
H -5.44835 3.63127 -0.71093
H -5.44083 2.64356 -2.15342
O 0.43721 2.83061 -1.63450
C 0.24308 4.12374 -2.45221
C -0.24231 5.42878 -1.70106
C 1.62750 4.40962 -3.02324
C -0.61724 4.19099 -3.75725
H 0.37616 5.80981 -0.86928
H 1.92358 3.64722 -3.77873
H 1.73671 5.40919 -3.49737
H 2.29431 4.34600 -2.19344
H -0.22845 6.31498 -2.37317
H -1.28982 5.31419 -1.36172
H -0.25672 3.53023 -4.57671
H -1.70348 4.10188 -3.56405
H -0.51258 5.19525 -4.23824
