200

Na     -0.312120000000000      0.007880000000000      0.200610000000000
C      -1.025030000000000     -2.291910000000000     -1.814720000000000
C      -2.774120000000000     -2.099590000000000     -0.255390000000000
O      -1.423700000000000     -1.812750000000000     -0.546790000000000
C      -1.276900000000000     -1.254630000000000     -2.905330000000000
C      -2.881980000000000     -3.430160000000000      0.477250000000000
H       0.067560000000000     -2.479810000000000     -1.769390000000000
H      -1.495470000000000     -3.265580000000000     -2.070880000000000
H      -3.152470000000000     -1.297620000000000      0.415360000000000
H      -3.425860000000000     -2.080560000000000     -1.156810000000000
H      -2.265320000000000     -3.403020000000000      1.400490000000000
H      -3.939480000000000     -3.619360000000000      0.754290000000000
H      -2.526190000000000     -4.257100000000000     -0.170850000000000
H      -0.760880000000000     -0.303090000000000     -2.661230000000000
H      -0.880460000000000     -1.634570000000000     -3.870350000000000
H      -2.362450000000000     -1.059290000000000     -3.019280000000000
C       0.528120000000000      2.204770000000000      2.365000000000000
C      -0.378540000000000      0.323850000000000      3.427110000000000
O      -0.251590000000000      1.037760000000000      2.219130000000000
C       2.018680000000000      1.908050000000000      2.211770000000000
C      -1.096850000000000     -0.989520000000000      3.131650000000000
H       0.239680000000000      2.891720000000000      1.541330000000000
H       0.311600000000000      2.746120000000000      3.311970000000000
H       0.612980000000000      0.074290000000000      3.861730000000000
H      -0.987710000000000      0.901800000000000      4.154900000000000
H      -0.513930000000000     -1.594230000000000      2.403920000000000
H      -1.221400000000000     -1.578450000000000      4.064090000000000
H      -2.099180000000000     -0.785850000000000      2.698650000000000
H       2.210310000000000      1.387350000000000      1.251000000000000
H       2.587250000000000      2.861510000000000      2.217280000000000
H       2.385730000000000      1.276640000000000      3.045320000000000
C      -1.647090000000000      2.669330000000000     -0.862450000000000
C       0.363240000000000      2.461890000000000     -2.061670000000000
O      -0.441210000000000      1.949470000000000     -1.020940000000000
C      -2.763370000000000      2.047900000000000     -1.695270000000000
C       1.342730000000000      3.496230000000000     -1.519930000000000
H      -1.938520000000000      2.605170000000000      0.207810000000000
H      -1.535240000000000      3.752970000000000     -1.089700000000000
H       0.945790000000000      1.616070000000000     -2.482320000000000
H      -0.232080000000000      2.874700000000000     -2.906390000000000
H       1.961780000000000      3.051990000000000     -0.712080000000000
H       2.012340000000000      3.836290000000000     -2.337080000000000
H       0.795430000000000      4.371740000000000     -1.114680000000000
H      -2.906590000000000      0.983490000000000     -1.411400000000000
H      -3.711210000000000      2.596040000000000     -1.510720000000000
H      -2.521220000000000      2.106810000000000     -2.776300000000000
C       2.860870000000000     -0.456190000000000     -1.057940000000000
C       2.051060000000000     -2.117200000000000      0.394030000000000
O       1.774180000000000     -0.901530000000000     -0.273080000000000
C       2.762730000000000     -1.000060000000000     -2.479270000000000
C       2.657160000000000     -1.858320000000000      1.768510000000000
H       2.807010000000000      0.651520000000000     -1.105250000000000
H       3.847950000000000     -0.696720000000000     -0.604800000000000
H       1.086410000000000     -2.649160000000000      0.538940000000000
H       2.694710000000000     -2.800040000000000     -0.203590000000000
H       1.977120000000000     -1.224220000000000      2.370850000000000
H       2.803850000000000     -2.823430000000000      2.297170000000000
H       3.636500000000000     -1.346880000000000      1.674460000000000
H       1.794080000000000     -0.709320000000000     -2.937210000000000
H       3.587030000000000     -0.580490000000000     -3.093010000000000
H       2.843750000000000     -2.106160000000000     -2.479020000000000
Na     -3.957740000000000    -16.928380000000001      0.037800000000000
C      -5.969700000000000    -14.877980000000001      1.369040000000000
C      -4.769170000000000    -13.774920000000000     -0.322040000000000
O      -4.814970000000000    -14.879700000000000      0.555140000000000
C      -7.121290000000000    -15.614509999999999      0.691640000000000
C      -3.989240000000000    -12.634020000000000      0.317490000000000
H      -5.718040000000000    -15.420410000000000      2.303960000000000
H      -6.274440000000000    -13.853999999999999      1.677880000000000
H      -4.237180000000000    -14.096030000000001     -1.243870000000000
H      -5.777560000000000    -13.436840000000000     -0.651240000000000
H      -2.969130000000000    -12.979110000000000      0.591040000000000
H      -3.906350000000000    -11.790760000000001     -0.398670000000000
H      -4.508370000000000    -12.281090000000001      1.232240000000000
H      -6.815510000000000    -16.648969999999998      0.431230000000000
H      -7.985920000000000    -15.663100000000000      1.386280000000000
H      -7.435670000000000    -15.086729999999999     -0.231740000000000
C      -1.761110000000000    -18.989599999999999     -1.132070000000000
C      -0.805600000000000    -16.883410000000001     -0.782360000000000
O      -2.001760000000000    -17.612510000000000     -0.937290000000000
C      -1.635070000000000    -19.727550000000001      0.199060000000000
C      -1.162340000000000    -15.448150000000000     -0.411420000000000
H      -2.644850000000000    -19.403340000000000     -1.662690000000000
H      -0.884960000000000    -19.181370000000001     -1.790620000000000
H      -0.178260000000000    -17.294830000000001      0.037420000000000
H      -0.236640000000000    -16.868279999999999     -1.737060000000000
H      -1.733770000000000    -15.425300000000000      0.541410000000000
H      -0.238650000000000    -14.846370000000000     -0.287890000000000
H      -1.784980000000000    -14.991700000000000     -1.209850000000000
H      -2.530260000000000    -19.539780000000000      0.827070000000000
H      -1.554670000000000    -20.818549999999998      0.010860000000000
H      -0.731180000000000    -19.399930000000001      0.750640000000000
C      -5.397660000000000    -18.220060000000000     -2.484100000000000
C      -6.186670000000000    -19.454020000000000     -0.650010000000000
O      -5.287560000000000    -18.460789999999999     -1.095730000000000
C      -6.384070000000000    -17.090290000000000     -2.756430000000000
C      -5.518090000000000    -20.822369999999999     -0.676110000000000
H      -4.397810000000000    -17.905940000000001     -2.852540000000000
H      -5.668100000000000    -19.132750000000001     -3.061760000000000
H      -6.459480000000000    -19.215440000000001      0.399080000000000
H      -7.142490000000000    -19.464169999999999     -1.221190000000000
H      -4.592900000000000    -20.805540000000001     -0.062410000000000
H      -6.211290000000000    -21.582740000000001     -0.260430000000000
H      -5.255630000000000    -21.103220000000000     -1.716800000000000
H      -6.066190000000000    -16.170089999999998     -2.221680000000000
H      -6.414190000000000    -16.878879999999999     -3.845900000000000
H      -7.402000000000000    -17.374260000000000     -2.418260000000000
C      -4.572640000000000    -18.740410000000001      2.950300000000000
C      -3.215290000000000    -16.837689999999998      3.164540000000000
O      -3.983600000000000    -17.639479999999999      2.288880000000000
C      -5.960660000000000    -18.378270000000001      3.465560000000000
C      -1.767000000000000    -17.309830000000002      3.196850000000000
H      -4.677040000000000    -19.561029999999999      2.210010000000000
H      -3.937050000000000    -19.144880000000001      3.769800000000000
H      -3.232480000000000    -15.797770000000000      2.774150000000000
H      -3.640340000000000    -16.789159999999999      4.192270000000000
H      -1.342170000000000    -17.299360000000000      2.173590000000000
H      -1.169270000000000    -16.630559999999999      3.838060000000000
H      -1.700800000000000    -18.339189999999999      3.604260000000000
H      -6.598530000000000    -18.023479999999999      2.629230000000000
H      -6.432090000000000    -19.274100000000001      3.920820000000000
H      -5.893790000000000    -17.579419999999999      4.232290000000000
Mg      0.583390000000000     -8.804690000000001      5.614890000000000
H      -1.465100000000000    -10.796170000000000      5.635950000000000
C      -2.337000000000000     -9.055280000000000      4.678360000000000
C      -1.416060000000000     -9.686740000000000      5.712080000000000
C      -2.086830000000000     -9.551800000000000      3.245550000000000
H      -3.383740000000000     -9.304330000000000      4.948480000000000
H      -2.198270000000000     -7.960530000000000      4.739730000000000
H      -1.035760000000000     -9.371270000000001      2.934400000000000
H      -2.293400000000000    -10.641980000000000      3.191580000000000
C      -3.028840000000000     -8.845640000000000      2.270390000000000
H      -1.745440000000000     -9.403729999999999      6.730190000000000
H      -4.086840000000000     -9.008369999999999      2.568440000000000
H      -2.827320000000000     -7.757100000000000      2.262750000000000
H      -2.885470000000000     -9.235939999999999      1.241220000000000
C       1.476110000000000    -13.123600000000000      1.473590000000000
C       0.284140000000000    -12.484370000000000      1.748300000000000
C      -0.061580000000000    -12.813269999999999      3.044340000000000
C       0.884100000000000    -13.602670000000000      3.545180000000000
N       1.900360000000000    -13.849940000000000      2.592040000000000
C       0.893300000000000    -14.177980000000000      4.921200000000000
N       0.890610000000000    -13.095340000000000      5.913850000000000
C       0.554270000000000    -13.435129999999999      7.316020000000000
H      -0.264090000000000    -11.847470000000000      1.069450000000000
H       2.017900000000000    -13.071030000000000      0.538590000000000
H      -0.946340000000000    -12.483470000000001      3.576860000000000
H      -0.002040000000000    -14.818140000000000      5.015050000000000
H       1.805190000000000    -14.794100000000000      5.054440000000000
C       1.583100000000000    -14.441420000000001      7.864120000000000
C       0.624800000000000    -12.151940000000000      8.155049999999999
C      -0.873430000000000    -14.018599999999999      7.457870000000000
H       2.609560000000000    -14.027300000000000      7.761940000000000
H       1.393490000000000    -14.659900000000000      8.936500000000001
H       1.533950000000000    -15.401260000000001      7.308580000000000
H      -0.119260000000000    -11.410950000000000      7.792760000000000
H       0.403480000000000    -12.365309999999999      9.224690000000001
H       1.637230000000000    -11.705120000000001      8.088939999999999
H      -1.635780000000000    -13.300050000000001      7.088800000000000
H      -0.995560000000000    -14.977080000000001      6.915920000000000
H      -1.093170000000000    -14.239200000000000      8.526270000000000
Mg      0.781510000000000    -11.142690000000000      5.150940000000000
H       2.826460000000000     -9.147930000000001      5.108860000000000
C       3.180960000000000    -10.407040000000000      3.377700000000000
C       2.735320000000000    -10.219070000000000      4.820030000000000
C       2.468040000000000     -9.473179999999999      2.387310000000000
H       4.269180000000000    -10.199120000000001      3.320940000000000
H       3.000050000000000    -11.464740000000001      3.112830000000000
H       1.365590000000000     -9.602290000000000      2.433180000000000
H       2.714530000000000     -8.418170000000000      2.633190000000000
C       2.948490000000000     -9.750360000000001      0.962830000000000
H       3.387480000000000    -10.807130000000001      5.493760000000000
H       4.051680000000000     -9.634370000000001      0.897210000000000
H       2.683500000000000    -10.782340000000000      0.662930000000000
H       2.473570000000000     -9.045480000000000      0.249030000000000
C      -1.267310000000000     -5.750440000000000      3.335430000000000
C      -0.103420000000000     -6.367720000000000      2.931200000000000
C       0.710660000000000     -6.476130000000000      4.042720000000000
C       0.060900000000000     -5.959470000000000      5.085390000000000
N      -1.207090000000000     -5.471380000000000      4.709730000000000
C       0.597670000000000     -5.885200000000000      6.479230000000000
N       0.884510000000000     -7.235230000000000      6.977310000000000
C       1.731310000000000     -7.370140000000000      8.187580000000001
H       0.120070000000000     -6.703960000000000      1.927460000000000
H      -2.111670000000000     -5.520790000000000      2.702160000000000
H       1.700840000000000     -6.908500000000000      4.075160000000000
H       1.507990000000000     -5.258740000000000      6.445350000000000
H      -0.157260000000000     -5.404430000000000      7.135090000000000
C       1.044640000000000     -6.673810000000000      9.376899999999999
C       1.881590000000000     -8.862869999999999      8.510450000000001
C       3.149940000000000     -6.782180000000000      7.987210000000000
H       0.025050000000000     -7.091330000000000      9.523149999999999
H       1.625570000000000     -6.820230000000000     10.312530000000001
H       0.956290000000000     -5.581560000000000      9.200170000000000
H       2.391480000000000     -9.390380000000000      7.676370000000000
H       2.490000000000000     -9.009729999999999      9.430960000000001
H       0.886290000000000     -9.323900000000000      8.671379999999999
H       3.675830000000000     -7.285700000000000      7.148430000000000
H       3.133200000000000     -5.691500000000000      7.794520000000000
H       3.756740000000000     -6.922620000000000      8.909860000000000
