170

Na     -0.073470000000000      0.216630000000000      0.293650000000000
C      -0.130240000000000     -2.649210000000000      1.591270000000000
C      -0.422340000000000     -1.050750000000000      3.289980000000000
O       0.023270000000000     -1.297900000000000      1.974130000000000
C      -1.500150000000000     -2.895900000000000      0.966400000000000
C       0.731260000000000     -1.206350000000000      4.271680000000000
H       0.639560000000000     -2.865440000000000      0.821870000000000
H       0.062160000000000     -3.355250000000000      2.427840000000000
H      -0.782610000000000      0.000180000000000      3.333320000000000
H      -1.288330000000000     -1.685620000000000      3.581840000000000
H       1.562880000000000     -0.524990000000000      3.991290000000000
H       0.386520000000000     -0.953460000000000      5.295400000000000
H       1.103040000000000     -2.251410000000000      4.264260000000000
H      -1.658660000000000     -2.217010000000000      0.103110000000000
H      -1.555310000000000     -3.945060000000000      0.607370000000000
H      -2.306580000000000     -2.731190000000000      1.709540000000000
C       0.203720000000000      3.125440000000000     -1.023070000000000
C       1.413030000000000      3.018610000000000      0.978950000000000
O       0.398740000000000      2.436840000000000      0.192970000000000
C       1.161750000000000      2.633750000000000     -2.106300000000000
C       1.657790000000000      2.117830000000000      2.185210000000000
H      -0.828690000000000      2.897010000000000     -1.362800000000000
H       0.253970000000000      4.229720000000000     -0.900290000000000
H       2.369920000000000      3.098190000000000      0.419910000000000
H       1.092440000000000      4.017440000000000      1.345600000000000
H       1.979560000000000      1.107030000000000      1.853810000000000
H       2.449740000000000      2.549480000000000      2.831870000000000
H       0.724880000000000      2.014840000000000      2.779070000000000
H       1.076860000000000      1.533740000000000     -2.223500000000000
H       0.903640000000000      3.114430000000000     -3.073040000000000
H       2.210290000000000      2.891250000000000     -1.856100000000000
C      -3.062160000000000      1.059660000000000     -0.321640000000000
C      -2.418630000000000     -0.288390000000000     -2.134650000000000
O      -2.006580000000000      0.362240000000000     -0.951520000000000
C      -3.759090000000000      0.173410000000000      0.704890000000000
C      -2.205770000000000      0.616730000000000     -3.341810000000000
H      -2.620100000000000      1.927100000000000      0.213650000000000
H      -3.793640000000000      1.481930000000000     -1.046520000000000
H      -1.785880000000000     -1.191730000000000     -2.258720000000000
H      -3.468920000000000     -0.653530000000000     -2.085880000000000
H      -1.142470000000000      0.931300000000000     -3.401230000000000
H      -2.468600000000000      0.066330000000000     -4.268950000000000
H      -2.845210000000000      1.519860000000000     -3.264880000000000
H      -3.026870000000000     -0.188610000000000      1.457720000000000
H      -4.545890000000000      0.758830000000000      1.225460000000000
H      -4.231820000000000     -0.698830000000000      0.208320000000000
C       1.371190000000000     -1.481860000000000     -2.346530000000000
C       2.710180000000000     -1.158290000000000     -0.444000000000000
O       1.440620000000000     -0.962120000000000     -1.034920000000000
C       0.892420000000000     -2.929230000000000     -2.329980000000000
C       3.629340000000000      0.023970000000000     -0.727600000000000
H       0.629920000000000     -0.875720000000000     -2.907970000000000
H       2.330880000000000     -1.384870000000000     -2.901150000000000
H       2.563730000000000     -1.224480000000000      0.655310000000000
H       3.186220000000000     -2.116100000000000     -0.751050000000000
H       3.164580000000000      0.961910000000000     -0.364550000000000
H       4.595110000000000     -0.121790000000000     -0.200120000000000
H       3.823820000000000      0.116440000000000     -1.815360000000000
H      -0.089480000000000     -3.003780000000000     -1.817480000000000
H       0.780200000000000     -3.294060000000000     -3.372270000000000
H       1.624290000000000     -3.572600000000000     -1.801560000000000
Na     -8.879460000000000    -15.915220000000000     -3.914570000000000
C      -6.267960000000000    -13.741160000000001     -4.911880000000000
C      -5.691730000000000    -14.741650000000000     -2.911700000000000
O      -6.679010000000000    -14.646060000000000     -3.913070000000000
C      -7.357760000000000    -13.667770000000001     -5.971930000000000
C      -6.175370000000000    -15.726630000000000     -1.857510000000000
H      -6.129560000000000    -12.719910000000000     -4.489500000000000
H      -5.332450000000000    -14.091490000000000     -5.404440000000000
H      -4.735240000000000    -15.128399999999999     -3.331590000000000
H      -5.530570000000000    -13.757170000000000     -2.415890000000000
H      -6.343320000000000    -16.723289999999999     -2.318830000000000
H      -5.420760000000000    -15.827059999999999     -1.051920000000000
H      -7.129180000000000    -15.369140000000000     -1.414050000000000
H      -8.308439999999999    -13.318400000000000     -5.514980000000000
H      -7.061940000000000    -12.960360000000000     -6.774610000000000
H      -7.521210000000000    -14.672219999999999     -6.418100000000000
Mg      1.753990000000000    -11.439130000000000     -1.055980000000000
C       2.634070000000000    -13.941640000000000     -0.309130000000000
C       2.218600000000000    -16.142740000000000     -0.966150000000000
O       2.290470000000000    -14.796659999999999     -1.382440000000000
C       4.099530000000000    -13.998320000000000      0.061010000000000
C       1.250780000000000    -16.894189999999998     -1.872760000000000
H       0.117490000000000    -14.023680000000001     -0.640910000000000
H       1.966590000000000    -14.035270000000001      0.574390000000000
H       3.224410000000000    -16.603429999999999     -1.056940000000000
H       1.843900000000000    -16.255279999999999      0.076030000000000
H       1.576710000000000    -16.819120000000002     -2.931980000000000
H       1.220200000000000    -17.964790000000001     -1.580180000000000
H       0.226930000000000    -16.474070000000001     -1.782470000000000
H       4.719410000000000    -13.857519999999999     -0.843130000000000
H       4.309850000000000    -13.182910000000000      0.783520000000000
H       4.332640000000000    -14.975239999999999      0.527520000000000
H       1.646100000000000     -9.950670000000001      1.216210000000000
C       3.228730000000000     -8.847840000000000      0.213470000000000
C       2.524130000000000    -10.165620000000001      0.575710000000000
C       2.348360000000000     -7.909650000000000     -0.619980000000000
H       3.514800000000000     -8.332710000000001      1.156740000000000
H       4.156670000000000     -9.074490000000001     -0.336220000000000
H       2.063440000000000     -8.412039999999999     -1.565480000000000
H       1.431670000000000     -7.660410000000000     -0.049080000000000
C       3.059550000000000     -6.596730000000000     -0.952490000000000
H       3.236180000000000    -10.792240000000000      1.153730000000000
H       3.325740000000000     -6.053420000000000     -0.020880000000000
H       3.980610000000000     -6.778390000000000     -1.543970000000000
H       2.383070000000000     -5.951660000000000     -1.552310000000000
C      -0.765730000000000     -9.934839999999999     -0.953940000000000
C      -2.130900000000000     -9.884449999999999     -1.071520000000000
C      -2.539510000000000    -11.148270000000000     -1.421620000000000
C      -1.401120000000000    -11.925269999999999     -1.491770000000000
N      -0.308530000000000    -11.168630000000000     -1.210470000000000
C      -1.434880000000000    -13.394700000000000     -1.809800000000000
N      -0.891020000000000    -14.231400000000001     -0.730040000000000
C      -1.525660000000000    -14.222420000000000      0.614340000000000
H      -2.753130000000000     -9.017379999999999     -0.914320000000000
H      -0.131640000000000     -9.112080000000001     -0.686110000000000
H      -3.556170000000000    -11.471990000000000     -1.592100000000000
H      -2.471350000000000    -13.719770000000000     -2.040210000000000
H      -0.857350000000000    -13.585400000000000     -2.736020000000000
C      -3.057090000000000    -14.360300000000001      0.518500000000000
C      -0.980390000000000    -15.438319999999999      1.388960000000000
C      -1.154190000000000    -12.955180000000000      1.421120000000000
H      -3.321510000000000    -15.281560000000001     -0.041480000000000
H      -3.508480000000000    -14.417740000000000      1.531970000000000
H      -3.509060000000000    -13.487660000000000      0.005190000000000
H       0.122270000000000    -15.372600000000000      1.496590000000000
H      -1.418390000000000    -15.486319999999999      2.409910000000000
H      -1.222330000000000    -16.383810000000000      0.858040000000000
H      -0.050510000000000    -12.831720000000001      1.469890000000000
H      -1.593450000000000    -12.036910000000001      0.999520000000000
H      -1.541880000000000    -13.026450000000001      2.458570000000000
Mg      3.110450000000000     -9.240610000000000     -3.496620000000000
H       1.964620000000000     -6.879930000000000     -3.947340000000000
C       0.796430000000000     -8.188950000000000     -5.207670000000000
C       2.125880000000000     -7.708930000000000     -4.668840000000000
C      -0.024070000000000     -8.802759999999999     -4.077380000000000
H       0.254150000000000     -7.335920000000000     -5.669580000000000
H       0.981160000000000     -8.949999999999999     -5.991170000000000
H       0.559360000000000     -9.617590000000000     -3.604880000000000
H      -0.237190000000000     -8.039999999999999     -3.297570000000000
C      -1.328970000000000     -9.372260000000001     -4.617210000000000
H       2.771840000000000     -7.337760000000000     -5.492510000000000
H      -1.940840000000000     -8.562260000000000     -5.065030000000000
H      -1.120150000000000    -10.148370000000000     -5.384400000000000
H      -1.903840000000000     -9.841500000000000     -3.798330000000000
C       6.699390000000000     -9.518300000000000     -4.910890000000000
C       6.523810000000000     -8.545690000000000     -3.947870000000000
C       5.790480000000000     -9.118370000000001     -2.932740000000000
C       5.538440000000000    -10.366190000000000     -3.312210000000000
N       6.121500000000000    -10.616320000000000     -4.559310000000000
C       4.661100000000000    -11.336060000000000     -2.568280000000000
N       3.303890000000000    -11.307779999999999     -3.133650000000000
C       2.929020000000000    -12.223100000000001     -4.240860000000000
H       6.847800000000000     -7.512450000000000     -3.997760000000000
H       7.224360000000000     -9.403000000000000     -5.842840000000000
H       5.439740000000000     -8.624060000000000     -2.045410000000000
H       4.558990000000000    -10.968850000000000     -1.528300000000000
H       5.119820000000000    -12.334669999999999     -2.470100000000000
C       3.774140000000000    -13.517280000000000     -4.277550000000000
C       1.462630000000000    -12.639049999999999     -4.025820000000000
C       3.036230000000000    -11.496440000000000     -5.583040000000000
H       3.709070000000000    -14.057300000000000     -3.311260000000000
H       3.407050000000000    -14.201250000000000     -5.072440000000000
H       4.839080000000000    -13.296180000000000     -4.494100000000000
H       0.788190000000000    -11.764600000000000     -3.990390000000000
H       1.107550000000000    -13.306020000000000     -4.841260000000000
H       1.360330000000000    -13.180830000000000     -3.066030000000000
H       2.383390000000000    -10.607080000000000     -5.579550000000000
H       4.069100000000000    -11.168010000000001     -5.782790000000000
H       2.717520000000000    -12.161330000000000     -6.413750000000000
