110

Na      1.578220000000000     -0.978450000000000      0.912130000000000
C      -0.261350000000000      0.634760000000000     -1.488820000000000
C      -1.419810000000000      0.635760000000000      0.517890000000000
O      -0.238410000000000      0.235630000000000     -0.137640000000000
C       1.036980000000000      0.177400000000000     -2.143300000000000
C      -1.337060000000000      0.180190000000000      1.969840000000000
H      -1.107990000000000      0.155420000000000     -2.030620000000000
H      -0.318720000000000      1.743720000000000     -1.575010000000000
H      -1.522940000000000      1.744680000000000      0.510500000000000
H      -2.312460000000000      0.155930000000000      0.056270000000000
H      -0.454940000000000      0.641100000000000      2.464170000000000
H      -2.253510000000000      0.477650000000000      2.521090000000000
H      -1.233310000000000     -0.924430000000000      2.015720000000000
H       1.127660000000000     -0.928330000000000     -2.077090000000000
H       1.056270000000000      0.475670000000000     -3.212400000000000
H       1.906310000000000      0.638540000000000     -1.626730000000000
Na    -12.032830000000001    -11.718220000000001     -2.490590000000000
C      -8.575620000000001    -11.056240000000001     -2.491370000000000
C      -9.730250000000000     -9.056600000000000     -2.491890000000000
O      -9.852480000000000    -10.460450000000000     -2.491880000000000
C      -8.751060000000001    -12.567860000000000     -2.490070000000000
C     -11.127879999999999     -8.453590000000000     -2.489060000000000
H      -8.006280000000000    -10.776220000000000     -3.406680000000000
H      -8.008350000000000    -10.776420000000000     -1.575180000000000
H      -9.201320000000001     -8.703620000000001     -1.577370000000000
H      -9.204499999999999     -8.703889999999999     -3.408330000000000
H     -11.681559999999999     -8.783870000000000     -1.584000000000000
H     -11.065759999999999     -7.345310000000000     -2.489390000000000
H     -11.685340000000000     -8.784310000000000     -3.391590000000000
H      -9.315659999999999    -12.884900000000000     -3.393010000000000
H      -7.759520000000000    -13.066900000000000     -2.490260000000000
H      -9.314150000000000    -12.883050000000001     -1.585400000000000
Mg     -2.953000000000000     -7.168430000000000     -1.955820000000000
H      -3.592580000000000     -3.879930000000000     -1.933580000000000
C      -3.077430000000000     -4.692590000000000      0.045350000000000
C      -3.673760000000000     -4.817240000000000     -1.348720000000000
C      -1.596400000000000     -4.314430000000000     -0.030380000000000
H      -3.642200000000000     -3.916980000000000      0.603110000000000
H      -3.184320000000000     -5.666390000000000      0.571950000000000
H      -1.037850000000000     -5.100530000000000     -0.578440000000000
H      -1.485010000000000     -3.352060000000000     -0.574640000000000
C      -0.994010000000000     -4.165990000000000      1.362580000000000
H      -4.726300000000000     -5.167860000000000     -1.299930000000000
H      -1.542560000000000     -3.388360000000000      1.934090000000000
H      -1.047770000000000     -5.128820000000000      1.913910000000000
H       0.070820000000000     -3.862540000000000      1.277600000000000
C      -0.988230000000000     -7.906190000000000      0.365150000000000
C       0.324250000000000     -8.285040000000000      0.589080000000000
C       0.918080000000000     -8.400930000000001     -0.651950000000000
C      -0.058720000000000     -8.090570000000000     -1.569880000000000
N      -1.214650000000000     -7.793530000000000     -0.951850000000000
C       0.055570000000000     -8.059020000000000     -3.040560000000000
N      -0.617150000000000     -6.849720000000000     -3.530680000000000
C       0.214370000000000     -5.709840000000000     -3.922190000000000
H       0.795260000000000     -8.448200000000000      1.547650000000000
H      -1.728610000000000     -7.704600000000000      1.128830000000000
H       1.943380000000000     -8.683120000000001     -0.860370000000000
H      -0.532710000000000     -8.923660000000000     -3.376820000000000
H       1.087810000000000     -8.207890000000001     -3.419680000000000
C       0.805050000000000     -5.968900000000000     -5.318970000000000
C      -0.710550000000000     -4.483260000000000     -3.983740000000000
C       1.320600000000000     -5.426920000000000     -2.889370000000000
H      -0.010330000000000     -6.137940000000000     -6.058170000000000
H       1.410280000000000     -5.101190000000000     -5.654460000000000
H       1.453750000000000     -6.868430000000000     -5.316510000000000
H      -1.172770000000000     -4.294460000000000     -2.992460000000000
H      -0.155610000000000     -3.576200000000000     -4.300020000000000
H      -1.533680000000000     -4.644750000000000     -4.700510000000000
H       0.872290000000000     -5.283710000000000     -1.884740000000000
H       2.049350000000000     -6.259470000000000     -2.830660000000000
H       1.876080000000000     -4.507020000000000     -3.163350000000000
Mg     -1.976910000000000     -8.315289999999999     -4.966350000000000
H      -1.756980000000000    -10.332319999999999     -6.910720000000000
C       0.277980000000000    -10.096200000000000     -6.108010000000000
C      -1.088620000000000     -9.538090000000000     -6.523030000000000
C       0.153630000000000    -11.264150000000001     -5.123320000000000
H       0.801520000000000    -10.466020000000000     -7.015370000000000
H       0.884390000000000     -9.274749999999999     -5.668500000000000
H      -0.376910000000000    -10.955990000000000     -4.209170000000000
H      -0.421200000000000    -12.083019999999999     -5.606380000000000
C       1.522500000000000    -11.795460000000000     -4.707470000000000
H      -0.919120000000000     -8.791729999999999     -7.329130000000000
H       2.097320000000000    -12.130820000000000     -5.596210000000000
H       2.096510000000000    -11.007510000000000     -4.173860000000000
H       1.389880000000000    -12.660090000000000     -4.022570000000000
C      -4.307690000000000     -7.792300000000000     -7.980510000000000
C      -3.472310000000000     -6.710870000000000     -7.818170000000000
C      -3.504950000000000     -6.367110000000000     -6.482430000000000
C      -4.313800000000000     -7.214670000000000     -5.844760000000000
N      -4.864760000000000     -8.153940000000000     -6.741680000000000
C      -4.559780000000000     -7.208630000000000     -4.358610000000000
N      -3.640200000000000     -8.149990000000001     -3.686350000000000
C      -4.223470000000000     -9.409440000000000     -3.183390000000000
H      -2.891980000000000     -6.230640000000000     -8.595300000000000
H      -4.500370000000000     -8.299379999999999     -8.915340000000000
H      -2.944490000000000     -5.570150000000000     -6.030090000000000
H      -5.634880000000000     -7.359960000000000     -4.134190000000000
H      -4.316570000000000     -6.191550000000000     -3.983970000000000
C      -4.940370000000000    -10.193090000000000     -4.294920000000000
C      -3.077270000000000    -10.271190000000001     -2.643260000000000
C      -5.191850000000000     -9.119260000000001     -2.010330000000000
H      -4.238300000000000    -10.398890000000000     -5.131040000000000
H      -5.314220000000000    -11.160959999999999     -3.897950000000000
H      -5.814050000000000     -9.633390000000000     -4.685100000000000
H      -2.527360000000000     -9.742710000000001     -1.841780000000000
H      -3.456170000000000    -11.224830000000001     -2.221020000000000
H      -2.373630000000000    -10.504600000000000     -3.460340000000000
H      -4.669980000000000     -8.585140000000001     -1.187270000000000
H      -6.057050000000000     -8.499459999999999     -2.316930000000000
H      -5.589110000000000    -10.066170000000000     -1.591170000000000
