200

Na      0.144080000000000      0.340910000000000      0.033510000000000
C       1.376500000000000     -0.480990000000000     -2.732320000000000
C       2.023180000000000      1.729750000000000     -2.258310000000000
O       1.119240000000000      0.683970000000000     -1.975160000000000
C       2.361500000000000     -1.402980000000000     -2.018890000000000
C       1.473650000000000      2.614530000000000     -3.369880000000000
H       0.415890000000000     -1.026120000000000     -2.837970000000000
H       1.717200000000000     -0.252650000000000     -3.765050000000000
H       2.126530000000000      2.345090000000000     -1.338060000000000
H       3.045580000000000      1.364630000000000     -2.501250000000000
H       0.476410000000000      3.011710000000000     -3.083010000000000
H       2.163940000000000      3.465390000000000     -3.544320000000000
H       1.373760000000000      2.033930000000000     -4.309650000000000
H       1.985770000000000     -1.663740000000000     -1.007900000000000
H       2.476990000000000     -2.338850000000000     -2.605180000000000
H       3.354580000000000     -0.919160000000000     -1.922950000000000
C      -1.289840000000000      1.231300000000000      2.745440000000000
C      -1.461250000000000      2.930270000000000      1.141140000000000
O      -0.788420000000000      1.757060000000000      1.535790000000000
C      -2.494060000000000      0.321500000000000      2.507880000000000
C      -0.956230000000000      3.326250000000000     -0.243140000000000
H      -0.483380000000000      0.607060000000000      3.185250000000000
H      -1.513220000000000      2.023190000000000      3.493520000000000
H      -2.557680000000000      2.767880000000000      1.065420000000000
H      -1.238770000000000      3.759390000000000      1.846700000000000
H      -1.162080000000000      2.516710000000000     -0.976200000000000
H      -1.460560000000000      4.253410000000000     -0.586260000000000
H       0.139690000000000      3.504060000000000     -0.212340000000000
H      -2.238910000000000     -0.471060000000000      1.774650000000000
H      -2.786260000000000     -0.161810000000000      3.463650000000000
H      -3.359970000000000      0.900110000000000      2.128990000000000
C       2.311590000000000     -0.230960000000000      2.261070000000000
C       1.253350000000000     -2.294810000000000      1.877640000000000
O       1.266320000000000     -0.911420000000000      1.596080000000000
C       3.560880000000000     -0.167240000000000      1.388230000000000
C       0.350370000000000     -2.590380000000000      3.069860000000000
H       1.969150000000000      0.809320000000000      2.448630000000000
H       2.543070000000000     -0.666660000000000      3.258450000000000
H       0.838230000000000     -2.813460000000000      0.988620000000000
H       2.272410000000000     -2.715060000000000      2.029890000000000
H      -0.674860000000000     -2.208220000000000      2.879640000000000
H       0.297540000000000     -3.687090000000000      3.232660000000000
H       0.750410000000000     -2.109110000000000      3.985630000000000
H       3.329370000000000      0.329250000000000      0.421770000000000
H       4.346620000000000      0.419180000000000      1.909620000000000
H       3.949410000000000     -1.187150000000000      1.189560000000000
C      -1.886590000000000     -2.379090000000000     -0.543640000000000
C      -2.304180000000000     -0.458380000000000     -1.832570000000000
O      -1.493270000000000     -1.055090000000000     -0.839720000000000
C      -1.148600000000000     -3.375200000000000     -1.431740000000000
C      -3.489370000000000      0.265810000000000     -1.204550000000000
H      -1.608510000000000     -2.581800000000000      0.511680000000000
H      -2.987510000000000     -2.526550000000000     -0.604620000000000
H      -1.684960000000000      0.294870000000000     -2.365430000000000
H      -2.643170000000000     -1.183110000000000     -2.605510000000000
H      -3.131710000000000      1.024380000000000     -0.480660000000000
H      -4.072840000000000      0.779450000000000     -1.997110000000000
H      -4.151300000000000     -0.450690000000000     -0.677440000000000
H      -0.050940000000000     -3.250190000000000     -1.322740000000000
H      -1.418800000000000     -4.408440000000000     -1.132460000000000
H      -1.424560000000000     -3.227100000000000     -2.495630000000000
Na     -0.324080000000000    -15.321500000000000      4.133040000000000
C       0.718920000000000    -12.607889999999999      5.391640000000000
C       2.334840000000000    -13.427500000000000      3.895750000000000
O       1.209360000000000    -13.732469999999999      4.690980000000000
C      -0.314910000000000    -11.850640000000000      4.563230000000000
C       3.613320000000000    -13.689900000000000      4.679460000000000
H       0.217560000000000    -12.981210000000001      6.308700000000000
H       1.530970000000000    -11.931160000000000      5.736980000000000
H       2.317510000000000    -14.100690000000000      3.011200000000000
H       2.316760000000000    -12.389650000000000      3.493810000000000
H       3.634610000000000    -14.745139999999999      5.026480000000000
H       4.494120000000000    -13.504560000000000      4.030760000000000
H       3.666170000000000    -13.018610000000001      5.561110000000000
H      -1.140210000000000    -12.530010000000001      4.265330000000000
H      -0.737240000000000    -11.021480000000000      5.168980000000000
H       0.149850000000000    -11.424320000000000      3.651010000000000
C      -1.336080000000000    -18.188880000000001      3.043390000000000
C       0.929290000000000    -18.279380000000000      3.618740000000000
O      -0.163360000000000    -17.447550000000000      3.302050000000000
C      -2.101330000000000    -18.490349999999999      4.330270000000000
C       2.096440000000000    -17.396220000000000      4.045860000000000
H      -1.988310000000000    -17.554819999999999      2.406100000000000
H      -1.135860000000000    -19.114789999999999      2.459830000000000
H       0.695270000000000    -18.957999999999998      4.467030000000000
H       1.239940000000000    -18.864989999999999      2.726640000000000
H       1.818490000000000    -16.793600000000001      4.937230000000000
H       2.976580000000000    -18.023009999999999      4.299480000000000
H       2.372190000000000    -16.704249999999998      3.221990000000000
H      -2.308850000000000    -17.550170000000001      4.881680000000000
H      -3.067120000000000    -18.977129999999999      4.080460000000000
H      -1.524120000000000    -19.173670000000001      4.984890000000000
C      -1.798610000000000    -14.623710000000001      1.405300000000000
C      -3.399670000000000    -14.227330000000000      3.074000000000000
O      -2.113880000000000    -14.729550000000000      2.779440000000000
C      -1.084190000000000    -13.308190000000000      1.115340000000000
C      -4.432220000000000    -15.345280000000001      3.019620000000000
H      -1.109640000000000    -15.457500000000000      1.152840000000000
H      -2.688100000000000    -14.746380000000000      0.746630000000000
H      -3.376960000000000    -13.815640000000000      4.104400000000000
H      -3.691390000000000    -13.384760000000000      2.413990000000000
H      -4.147340000000000    -16.159279999999999      3.718840000000000
H      -5.425990000000000    -14.948309999999999      3.314160000000000
H      -4.498900000000000    -15.758540000000000      1.992210000000000
H      -0.166580000000000    -13.228270000000000      1.736020000000000
H      -0.795290000000000    -13.272309999999999      0.043880000000000
H      -1.748850000000000    -12.447190000000001      1.335550000000000
C      -2.509300000000000    -15.220840000000001      6.844570000000000
C      -0.275240000000000    -15.768110000000000      7.311410000000000
O      -1.212520000000000    -15.407590000000001      6.315760000000000
C      -2.722090000000000    -13.765940000000001      7.246980000000000
C      -0.193690000000000    -17.283249999999999      7.453050000000000
H      -3.237470000000000    -15.473430000000000      6.045730000000000
H      -2.734110000000000    -15.905700000000000      7.692860000000000
H       0.720500000000000    -15.395890000000000      6.988890000000000
H      -0.481270000000000    -15.287860000000000      8.294280000000001
H       0.066000000000000    -17.741320000000002      6.478060000000000
H       0.592370000000000    -17.545829999999999      8.191520000000001
H      -1.163560000000000    -17.696100000000001      7.797870000000000
H      -2.542510000000000    -13.097980000000000      6.378720000000000
H      -3.766710000000000    -13.627280000000001      7.595540000000000
H      -2.030120000000000    -13.485200000000001      8.067280000000000
Mg     -6.639960000000000     -9.256760000000000      3.431580000000000
H      -5.030270000000000    -11.664270000000000      1.803400000000000
C      -7.204980000000000    -11.742760000000001      1.516660000000000
C      -5.967610000000000    -11.433990000000000      2.343290000000000
C      -7.176840000000000    -10.968769999999999      0.196780000000000
H      -7.235360000000000    -12.834420000000000      1.318820000000000
H      -8.107460000000000    -11.454170000000000      2.098670000000000
H      -7.151700000000000     -9.879130000000000      0.402190000000000
H      -6.265180000000000    -11.244000000000000     -0.376000000000000
C      -8.404870000000001    -11.280450000000000     -0.651250000000000
H      -6.006870000000000    -11.944310000000000      3.328980000000000
H      -8.453230000000000    -12.368779999999999     -0.867460000000000
H      -9.330590000000001    -10.970450000000000     -0.121340000000000
H      -8.342890000000001    -10.728339999999999     -1.612690000000000
C      -9.291520000000000     -8.540459999999999      1.936550000000000
C      -9.855600000000001     -7.547150000000000      1.154490000000000
C      -8.915570000000001     -6.540380000000000      1.058920000000000
C      -7.828460000000000     -6.965480000000000      1.786790000000000
N      -8.059710000000001     -8.177790000000000      2.320600000000000
C      -6.549550000000000     -6.262890000000000      2.003810000000000
N      -5.457150000000000     -7.229960000000000      1.842310000000000
C      -4.701810000000000     -7.212330000000000      0.588240000000000
H     -10.835160000000000     -7.561130000000000      0.699370000000000
H      -9.754130000000000     -9.485970000000000      2.190970000000000
H      -9.015620000000000     -5.603690000000000      0.522920000000000
H      -6.576820000000000     -5.969710000000000      3.062120000000000
H      -6.438990000000000     -5.328150000000000      1.415800000000000
C      -3.692570000000000     -6.051530000000000      0.619710000000000
C      -3.938300000000000     -8.544589999999999      0.508920000000000
C      -5.629100000000000     -7.115390000000000     -0.637160000000000
H      -3.008960000000000     -6.156320000000000      1.492320000000000
H      -3.082740000000000     -6.043100000000000     -0.306700000000000
H      -4.209800000000000     -5.074380000000000      0.707890000000000
H      -4.646280000000000     -9.399400000000000      0.514120000000000
H      -3.317340000000000     -8.598430000000000     -0.408820000000000
H      -3.270860000000000     -8.670180000000000      1.378640000000000
H      -6.371750000000000     -7.939390000000000     -0.615540000000000
H      -6.176920000000000     -6.152620000000000     -0.661880000000000
H      -5.039240000000000     -7.195070000000000     -1.572840000000000
Mg     -4.693690000000000     -6.589400000000000      4.092680000000000
H      -3.982930000000000     -4.349870000000000      5.634870000000000
C      -4.865610000000000     -3.514320000000000      3.800810000000000
C      -4.043390000000000     -4.569600000000000      4.550420000000000
C      -6.254010000000000     -3.313580000000000      4.418860000000000
H      -4.325540000000000     -2.544440000000000      3.845870000000000
H      -4.950240000000000     -3.814570000000000      2.733880000000000
H      -6.828020000000000     -4.253150000000000      4.416670000000000
H      -6.135160000000000     -2.975260000000000      5.470420000000000
C      -7.065040000000000     -2.273900000000000      3.650620000000000
H      -3.015140000000000     -4.560560000000000      4.128160000000000
H      -6.532430000000000     -1.299870000000000      3.631750000000000
H      -7.242990000000000     -2.616440000000000      2.608490000000000
H      -8.048439999999999     -2.132340000000000      4.147940000000000
C      -1.497450000000000     -7.113390000000000      6.148550000000000
C      -1.241720000000000     -7.307070000000000      4.810260000000000
C      -2.233900000000000     -8.131570000000000      4.320030000000000
C      -3.076980000000000     -8.417140000000000      5.313800000000000
N      -2.666640000000000     -7.801030000000000      6.514080000000000
C      -4.332610000000000     -9.233840000000001      5.166690000000000
N      -5.491520000000000     -8.344870000000000      4.939400000000000
C      -6.435750000000000     -8.175020000000000      6.061600000000000
H      -0.420210000000000     -6.879480000000000      4.250360000000000
H      -0.901180000000000     -6.513070000000000      6.820630000000000
H      -2.326900000000000     -8.456730000000000      3.300020000000000
H      -4.441220000000000     -9.940890000000000      6.013580000000000
H      -4.219900000000000     -9.865140000000000      4.259510000000000
C      -5.731500000000000     -7.672920000000000      7.332750000000000
C      -7.478150000000000     -7.133100000000000      5.641600000000000
C      -7.179710000000000     -9.504560000000000      6.339110000000000
H      -5.203550000000000     -6.717490000000000      7.125750000000000
H      -6.477490000000000     -7.498480000000000      8.137280000000001
H      -5.001270000000000     -8.415990000000001      7.711200000000000
H      -8.008080000000000     -7.449830000000000      4.723640000000000
H      -8.238630000000001     -6.982770000000000      6.435620000000000
H      -6.979310000000000     -6.168420000000000      5.447180000000000
H      -7.723710000000000     -9.851360000000000      5.434190000000000
H      -6.494470000000000    -10.317250000000000      6.649220000000000
H      -7.928750000000000     -9.371440000000000      7.146770000000000
