110

Na      0.000030000000000      2.201020000000000     -0.001210000000000
C      -1.158020000000000     -1.040910000000000     -0.000610000000000
C       1.157570000000000     -1.041860000000000     -0.000890000000000
O      -0.000010000000000     -0.238340000000000     -0.000340000000000
C      -2.374670000000000     -0.123830000000000      0.001000000000000
C       2.374310000000000     -0.124460000000000      0.001360000000000
H      -1.203620000000000     -1.673500000000000     -0.916140000000000
H      -1.203100000000000     -1.671430000000000      0.915250000000000
H       1.202170000000000     -1.676480000000000      0.913320000000000
H       1.203100000000000     -1.672530000000000     -0.917620000000000
H       2.361890000000000      0.521440000000000      0.905620000000000
H       3.308860000000000     -0.723440000000000      0.000680000000000
H       2.362690000000000      0.524580000000000     -0.900700000000000
H      -2.363200000000000      0.524980000000000     -0.901140000000000
H      -3.308890000000000     -0.723420000000000      0.000690000000000
H      -2.362320000000000      0.521960000000000      0.905340000000000
Na      5.697540000000000    -16.080439999999999      6.862750000000000
C       2.477070000000000    -15.279719999999999      5.671070000000000
C       3.920620000000000    -13.549429999999999      5.168930000000000
O       3.804660000000000    -14.817810000000000      5.771560000000000
C       2.395420000000000    -16.651309999999999      6.325740000000000
C       5.364600000000000    -13.086440000000000      5.296810000000000
H       1.778440000000000    -14.599119999999999      6.208920000000000
H       2.173300000000000    -15.388669999999999      4.604900000000000
H       3.672660000000000    -13.602550000000001      4.085010000000000
H       3.272840000000000    -12.803810000000000      5.683990000000000
H       6.039980000000000    -13.807370000000001      4.788050000000000
H       5.487000000000000    -12.086420000000000      4.830710000000000
H       5.649020000000000    -13.022880000000001      6.369050000000000
H       2.690950000000000    -16.579400000000000      7.394470000000000
H       1.358590000000000    -17.042809999999999      6.263610000000000
H       3.080110000000000    -17.358720000000002      5.810490000000000
Mg     -2.384050000000000    -10.033939999999999      1.907650000000000
H      -4.750990000000000    -11.539759999999999      2.208790000000000
C      -4.293800000000000    -11.347519999999999      0.073390000000000
C      -4.383910000000000    -10.783709999999999      1.484680000000000
C      -3.382770000000000    -12.569929999999999      0.071400000000000
H      -5.296030000000000    -11.623820000000000     -0.316060000000000
H      -3.867660000000000    -10.558460000000000     -0.581020000000000
H      -2.450450000000000    -12.324759999999999      0.596280000000000
H      -3.870440000000000    -13.397360000000001      0.628020000000000
C      -3.036660000000000    -13.010809999999999     -1.345740000000000
H      -5.073180000000000     -9.911120000000000      1.487210000000000
H      -3.957270000000000    -13.271599999999999     -1.906530000000000
H      -2.499340000000000    -12.195340000000000     -1.878880000000000
H      -2.369470000000000    -13.897130000000001     -1.303090000000000
C      -0.183010000000000     -7.916010000000000     -2.501940000000000
C      -0.187050000000000     -9.186669999999999     -1.971570000000000
C      -1.157140000000000     -9.213730000000000     -0.986310000000000
C      -1.720790000000000     -8.010840000000000     -0.914840000000000
N      -1.161180000000000     -7.132730000000000     -1.866290000000000
C      -2.809400000000000     -7.620750000000000      0.043510000000000
N      -2.251320000000000     -7.444820000000000      1.397390000000000
C      -2.235390000000000     -6.056410000000000      1.909630000000000
H       0.459060000000000    -10.001550000000000     -2.273960000000000
H       0.470370000000000     -7.565030000000000     -3.288730000000000
H      -1.427460000000000    -10.058120000000001     -0.381160000000000
H      -3.591970000000000     -8.401410000000000      0.057950000000000
H      -3.320910000000000     -6.717960000000000     -0.330570000000000
C      -3.673630000000000     -5.630430000000000      2.252330000000000
C      -1.390650000000000     -5.999890000000000      3.197510000000000
C      -1.566760000000000     -5.082930000000000      0.912720000000000
H      -4.112230000000000     -6.339910000000000      2.988660000000000
H      -3.689770000000000     -4.612670000000000      2.692170000000000
H      -4.324500000000000     -5.635730000000000      1.355870000000000
H      -0.356070000000000     -6.339260000000000      2.996760000000000
H      -1.339800000000000     -4.964230000000000      3.594480000000000
H      -1.811640000000000     -6.614200000000000      4.006310000000000
H      -0.531850000000000     -5.421110000000000      0.691110000000000
H      -2.111360000000000     -4.990600000000000     -0.044100000000000
H      -1.517670000000000     -4.065760000000000      1.352120000000000
Mg      0.124300000000000     -8.318270000000000      1.625090000000000
H       2.637180000000000     -8.118550000000001      0.455790000000000
C       2.461200000000000     -6.256690000000000      1.603200000000000
C       1.864140000000000     -7.382000000000000      0.753380000000000
C       3.210380000000000     -6.770170000000000      2.837640000000000
H       3.198610000000000     -5.723530000000000      0.966790000000000
H       1.675060000000000     -5.525630000000000      1.894920000000000
H       3.957490000000000     -7.527200000000000      2.515020000000000
H       3.753440000000000     -5.920570000000000      3.303370000000000
C       2.295360000000000     -7.365380000000000      3.899170000000000
H       1.451340000000000     -6.922860000000000     -0.171380000000000
H       1.600330000000000     -6.594030000000000      4.290180000000000
H       1.714920000000000     -8.199980000000000      3.480310000000000
H       2.907380000000000     -7.748530000000000      4.742470000000000
C      -3.529040000000000    -11.034050000000001      5.792700000000000
C      -4.068470000000000     -9.844609999999999      5.357370000000000
C      -3.068430000000000     -9.166499999999999      4.692420000000000
C      -1.958650000000000     -9.908720000000001      4.712450000000000
N      -2.187220000000000    -11.118819999999999      5.407140000000000
C      -0.622950000000000     -9.528330000000000      4.135790000000000
N      -0.457830000000000     -9.992550000000000      2.744000000000000
C       0.391330000000000    -11.197630000000000      2.525930000000000
H      -5.083890000000000     -9.511180000000000      5.515150000000000
H      -4.055680000000000    -11.794729999999999      6.351820000000000
H      -3.192950000000000     -8.197730000000000      4.239010000000000
H       0.186280000000000     -9.826250000000000      4.823500000000000
H      -0.564140000000000     -8.428430000000001      4.123090000000000
C      -0.226740000000000    -12.419700000000001      3.227920000000000
C       0.502950000000000    -11.498300000000000      1.020650000000000
C       1.841260000000000    -10.972530000000001      3.012200000000000
H      -1.265480000000000    -12.586270000000001      2.865870000000000
H       0.368720000000000    -13.335170000000000      3.029560000000000
H      -0.246620000000000    -12.274979999999999      4.324780000000000
H       0.940450000000000    -10.636790000000000      0.473600000000000
H       1.151310000000000    -12.384710000000000      0.844800000000000
H      -0.465200000000000    -11.739010000000000      0.578150000000000
H       2.299680000000000    -10.122560000000000      2.464520000000000
H       1.920510000000000    -10.786260000000000      4.098260000000000
H       2.457290000000000    -11.872140000000000      2.803530000000000
