170

Na      0.372510000000000     -0.002720000000000      0.048380000000000
C      -0.545190000000000      2.430140000000000      1.807890000000000
C       1.765660000000000      2.119980000000000      2.113620000000000
O       0.550120000000000      1.546020000000000      1.684670000000000
C      -0.725280000000000      3.272660000000000      0.548170000000000
C       1.995450000000000      1.824500000000000      3.590170000000000
H      -1.457260000000000      1.811580000000000      1.936650000000000
H      -0.476840000000000      3.071570000000000      2.712710000000000
H       2.586090000000000      1.649320000000000      1.529190000000000
H       1.826410000000000      3.211300000000000      1.906220000000000
H       1.984790000000000      0.727350000000000      3.765320000000000
H       2.979860000000000      2.229890000000000      3.902370000000000
H       1.201210000000000      2.295470000000000      4.204700000000000
H      -0.842300000000000      2.619650000000000     -0.341290000000000
H      -1.638660000000000      3.895450000000000      0.652020000000000
H       0.145380000000000      3.941890000000000      0.394560000000000
C       1.246520000000000     -2.609170000000000     -1.581910000000000
C       2.207540000000000     -2.627030000000000      0.553940000000000
O       1.593640000000000     -1.847530000000000     -0.445990000000000
C      -0.119340000000000     -3.273700000000000     -1.418820000000000
C       2.397730000000000     -1.753200000000000      1.789760000000000
H       1.171920000000000     -1.901170000000000     -2.434490000000000
H       2.032410000000000     -3.346430000000000     -1.856580000000000
H       1.571250000000000     -3.487840000000000      0.848350000000000
H       3.205610000000000     -2.977480000000000      0.213120000000000
H       1.415590000000000     -1.385990000000000      2.158300000000000
H       2.887120000000000     -2.333510000000000      2.599310000000000
H       3.032020000000000     -0.875700000000000      1.542280000000000
H      -0.888120000000000     -2.514590000000000     -1.165690000000000
H      -0.407080000000000     -3.764000000000000     -2.372320000000000
H      -0.094170000000000     -4.044390000000000     -0.622640000000000
C       1.405970000000000      1.142400000000000     -2.710190000000000
C      -0.930990000000000      1.016800000000000     -2.925990000000000
O       0.191820000000000      0.718450000000000     -2.124030000000000
C       1.765990000000000      2.552520000000000     -2.253960000000000
C      -1.255760000000000     -0.152830000000000     -3.847720000000000
H       2.205220000000000      0.453040000000000     -2.363000000000000
H       1.395830000000000      1.072390000000000     -3.820730000000000
H      -1.794430000000000      1.176460000000000     -2.247260000000000
H      -0.813720000000000      1.962270000000000     -3.500980000000000
H      -1.418420000000000     -1.076490000000000     -3.253030000000000
H      -2.180370000000000      0.071320000000000     -4.419240000000000
H      -0.424200000000000     -0.325190000000000     -4.561190000000000
H       1.836240000000000      2.591260000000000     -1.145960000000000
H       2.748990000000000      2.840130000000000     -2.682880000000000
H       1.000780000000000      3.279410000000000     -2.595710000000000
C      -3.001510000000000     -0.686800000000000     -0.002350000000000
C      -1.870200000000000     -1.114350000000000      2.012640000000000
O      -1.770070000000000     -0.631990000000000      0.687250000000000
C      -3.781350000000000      0.611890000000000      0.174370000000000
C      -1.588870000000000     -2.611620000000000      2.070600000000000
H      -2.774350000000000     -0.811620000000000     -1.081650000000000
H      -3.618570000000000     -1.566450000000000      0.285510000000000
H      -1.096610000000000     -0.595900000000000      2.618690000000000
H      -2.847500000000000     -0.873170000000000      2.486360000000000
H      -0.587800000000000     -2.827780000000000      1.648190000000000
H      -1.609050000000000     -2.952160000000000      3.126990000000000
H      -2.351100000000000     -3.176000000000000      1.496270000000000
H      -3.172820000000000      1.476480000000000     -0.164360000000000
H      -4.709870000000000      0.570550000000000     -0.432540000000000
H      -4.055770000000000      0.759320000000000      1.238780000000000
Na     -4.851200000000000    -16.110930000000000      7.087750000000000
C      -1.775920000000000    -14.446140000000000      6.643410000000000
C      -2.931610000000000    -14.446669999999999      4.642930000000000
O      -2.959430000000000    -14.848670000000000      5.993460000000000
C      -1.848410000000000    -14.897990000000000      8.095269999999999
C      -4.225970000000000    -14.901120000000001      3.984100000000000
H      -0.884780000000000    -14.925319999999999      6.177890000000000
H      -1.674670000000000    -13.337030000000000      6.633100000000000
H      -2.872970000000000    -13.337520000000000      4.558980000000000
H      -2.082870000000000    -14.924560000000000      4.102370000000000
H      -5.095600000000000    -14.439060000000000      4.498570000000000
H      -4.239620000000000    -14.600830000000000      2.917260000000000
H      -4.315660000000000    -16.006660000000000      4.047460000000000
H      -1.948320000000000    -16.003599999999999      8.143900000000000
H      -0.927510000000000    -14.594970000000000      8.635940000000000
H      -2.727820000000000    -14.435730000000000      8.592980000000001
Mg      2.199330000000000    -10.543139999999999     -0.677990000000000
C       0.047400000000000     -9.172480000000000     -1.670710000000000
C      -1.967020000000000     -8.340570000000000     -0.835540000000000
O      -0.620910000000000     -8.642760000000001     -0.542070000000000
C       0.407710000000000     -8.128600000000000     -2.703150000000000
C      -2.789440000000000     -8.428760000000000      0.444760000000000
H      -0.815260000000000    -11.018050000000001     -0.168090000000000
H      -0.452510000000000    -10.058490000000001     -2.117650000000000
H      -2.026430000000000     -7.304050000000000     -1.228000000000000
H      -2.421250000000000     -9.048480000000000     -1.564730000000000
H      -2.381730000000000     -7.739060000000000      1.214100000000000
H      -3.842290000000000     -8.148630000000001      0.231090000000000
H      -2.774500000000000     -9.463509999999999      0.847370000000000
H       0.938090000000000     -7.289960000000000     -2.217860000000000
H       1.070480000000000     -8.599069999999999     -3.458470000000000
H      -0.510430000000000     -7.754990000000000     -3.196090000000000
H       3.036430000000000    -12.206410000000000     -2.651930000000000
C       4.804970000000000    -10.943640000000000     -2.573050000000000
C       3.280200000000000    -11.135260000000001     -2.510350000000000
C       5.546450000000000    -11.665810000000000     -1.442120000000000
H       5.166180000000000    -11.334140000000000     -3.549820000000000
H       5.035560000000000     -9.866590000000000     -2.541380000000000
H       5.197150000000000    -11.279500000000001     -0.463820000000000
H       5.338760000000000    -12.752810000000000     -1.501620000000000
C       7.061970000000000    -11.477470000000000     -1.534830000000000
H       2.824350000000000    -10.557359999999999     -3.342230000000000
H       7.444810000000000    -11.883740000000000     -2.495160000000000
H       7.337850000000000    -10.405490000000000     -1.457660000000000
H       7.555810000000000    -12.024440000000000     -0.703030000000000
C       2.703080000000000    -13.220200000000000      0.403570000000000
C       2.318690000000000    -14.295310000000001      1.163380000000000
C       1.100580000000000    -13.969690000000000      1.707660000000000
C       0.783550000000000    -12.709479999999999      1.246260000000000
N       1.784660000000000    -12.248360000000000      0.446500000000000
C      -0.504850000000000    -12.015250000000000      1.584750000000000
N      -1.324340000000000    -11.712320000000000      0.402460000000000
C      -1.814990000000000    -12.811870000000001     -0.469410000000000
H       2.869860000000000    -15.212020000000001      1.296710000000000
H       3.611420000000000    -13.151320000000000     -0.164460000000000
H       0.499430000000000    -14.590400000000001      2.357750000000000
H      -1.100040000000000    -12.624910000000000      2.297390000000000
H      -0.288250000000000    -11.070830000000001      2.122190000000000
C      -2.435020000000000    -13.953590000000000      0.357840000000000
C      -2.911820000000000    -12.223540000000000     -1.378660000000000
C      -0.700010000000000    -13.364839999999999     -1.389650000000000
H      -3.247170000000000    -13.557550000000001      1.002640000000000
H      -2.857720000000000    -14.734900000000000     -0.309080000000000
H      -1.675420000000000    -14.443190000000000      1.000180000000000
H      -2.503190000000000    -11.404380000000000     -2.006280000000000
H      -3.320010000000000    -13.001130000000000     -2.060720000000000
H      -3.747650000000000    -11.813440000000000     -0.772560000000000
H      -0.225280000000000    -12.542750000000000     -1.967990000000000
H       0.084200000000000    -13.903779999999999     -0.834640000000000
H      -1.117470000000000    -14.099370000000000     -2.109200000000000
Mg      5.204690000000000     -9.254110000000001      0.753410000000000
H       7.070520000000000    -10.946160000000001      1.609740000000000
C       5.757290000000000    -10.826000000000001      3.322270000000000
C       6.527150000000000    -10.174609999999999      2.195160000000000
C       4.670430000000000    -11.728930000000000      2.747090000000000
H       6.456760000000000    -11.408939999999999      3.959230000000000
H       5.295730000000000    -10.034420000000001      3.944920000000000
H       4.018150000000000    -11.133390000000000      2.078370000000000
H       5.125890000000000    -12.542310000000001      2.141960000000000
C       3.827380000000000    -12.324460000000000      3.866590000000000
H       7.266720000000000     -9.448280000000000      2.593830000000000
H       4.461170000000000    -12.950650000000000      4.527830000000000
H       3.354150000000000    -11.514880000000000      4.462520000000000
H       3.025410000000000    -12.954710000000000      3.441420000000000
C       6.507600000000000     -5.644250000000000      0.253130000000000
C       7.095480000000000     -6.617760000000000     -0.521840000000000
C       6.083540000000000     -7.405260000000000     -1.026910000000000
C       4.920050000000000     -6.942940000000000     -0.561160000000000
N       5.114220000000000     -5.808280000000000      0.249210000000000
C       3.590170000000000     -7.604860000000000     -0.768290000000000
N       3.285320000000000     -8.466200000000001      0.385620000000000
C       2.562540000000000     -7.919710000000000      1.561850000000000
H       8.156710000000000     -6.753780000000000     -0.678820000000000
H       7.031540000000000     -4.876910000000000      0.802140000000000
H       6.226720000000000     -8.282950000000000     -1.634420000000000
H       3.678560000000000     -8.285740000000001     -1.638210000000000
H       2.802190000000000     -6.886600000000000     -1.050750000000000
C       1.671730000000000     -6.702830000000000      1.222080000000000
C       1.640370000000000     -9.028580000000000      2.099170000000000
C       3.556860000000000     -7.542660000000000      2.662660000000000
H       0.944920000000000     -6.956430000000000      0.424330000000000
H       1.094590000000000     -6.378900000000000      2.114380000000000
H       2.283510000000000     -5.841420000000000      0.888030000000000
H       2.204810000000000     -9.940610000000000      2.364490000000000
H       1.093260000000000     -8.695069999999999      3.007530000000000
H       0.896780000000000     -9.307240000000000      1.328880000000000
H       4.146230000000000     -8.428550000000000      2.954030000000000
H       4.254290000000000     -6.758210000000000      2.328090000000000
H       3.021480000000000     -7.168320000000000      3.560810000000000
