215

Na      0.153650000000000     -0.047660000000000     -0.363350000000000
C       2.505720000000000      1.435370000000000      1.114480000000000
C       3.210500000000000      0.888630000000000     -1.060140000000000
O       2.290330000000000      0.625740000000000     -0.023170000000000
C       1.726820000000000      2.743640000000000      1.017660000000000
C       4.415300000000000     -0.033290000000000     -0.935430000000000
H       2.127110000000000      0.876980000000000      1.995500000000000
H       3.584050000000000      1.623660000000000      1.308090000000000
H       2.702250000000000      0.676760000000000     -2.025870000000000
H       3.523210000000000      1.955730000000000     -1.103520000000000
H       4.085200000000000     -1.094080000000000     -0.946120000000000
H       5.108260000000000      0.138990000000000     -1.784480000000000
H       4.949800000000000      0.168300000000000      0.014080000000000
H       0.645950000000000      2.539040000000000      0.872170000000000
H       1.855840000000000      3.317540000000000      1.959220000000000
H       2.096010000000000      3.359070000000000      0.172270000000000
C      -2.180040000000000     -1.745120000000000     -1.766320000000000
C      -0.097370000000000     -2.737460000000000     -2.163620000000000
O      -0.780130000000000     -1.568320000000000     -1.773600000000000
C      -2.664790000000000     -2.327380000000000     -0.440110000000000
C       1.398390000000000     -2.499280000000000     -1.984570000000000
H      -2.634700000000000     -0.737580000000000     -1.874140000000000
H      -2.538710000000000     -2.342980000000000     -2.632990000000000
H      -0.376930000000000     -3.606090000000000     -1.529680000000000
H      -0.292090000000000     -2.959090000000000     -3.235020000000000
H       1.629050000000000     -2.272530000000000     -0.921350000000000
H       1.969130000000000     -3.401320000000000     -2.288370000000000
H       1.724520000000000     -1.640090000000000     -2.608290000000000
H      -2.312080000000000     -1.701660000000000      0.405490000000000
H      -3.774630000000000     -2.346160000000000     -0.428970000000000
H      -2.295630000000000     -3.363310000000000     -0.302360000000000
C      -1.494900000000000      2.120150000000000     -1.980440000000000
C      -2.320560000000000      2.237040000000000      0.215280000000000
O      -1.474670000000000      1.554390000000000     -0.685500000000000
C      -0.395280000000000      3.165620000000000     -2.130130000000000
C      -3.704080000000000      1.599120000000000      0.232740000000000
H      -1.297730000000000      1.303660000000000     -2.707640000000000
H      -2.487920000000000      2.543960000000000     -2.251120000000000
H      -1.878330000000000      2.142190000000000      1.228800000000000
H      -2.383900000000000      3.329000000000000      0.008840000000000
H      -3.624630000000000      0.521290000000000      0.487740000000000
H      -4.334870000000000      2.102030000000000      0.994820000000000
H      -4.188280000000000      1.700030000000000     -0.760170000000000
H       0.595770000000000      2.711020000000000     -1.917770000000000
H      -0.393960000000000      3.554870000000000     -3.169940000000000
H      -0.565040000000000      4.010860000000000     -1.431800000000000
C      -1.037930000000000     -0.451740000000000      2.859800000000000
C       0.803930000000000     -1.772810000000000      2.245500000000000
O      -0.110030000000000     -0.771460000000000      1.843880000000000
C      -0.516890000000000      0.687720000000000      3.728370000000000
C       0.276030000000000     -3.159570000000000      1.897910000000000
H      -1.972620000000000     -0.114010000000000      2.365410000000000
H      -1.319250000000000     -1.331000000000000      3.481060000000000
H       1.748540000000000     -1.612490000000000      1.683110000000000
H       1.070740000000000     -1.706890000000000      3.323840000000000
H       0.068540000000000     -3.225190000000000      0.811550000000000
H       1.037020000000000     -3.923360000000000      2.161890000000000
H      -0.657800000000000     -3.373970000000000      2.456190000000000
H      -0.287240000000000      1.574480000000000      3.101250000000000
H      -1.290300000000000      0.967630000000000      4.473680000000000
H       0.402880000000000      0.377950000000000      4.265340000000000
Na      9.983530000000000     -9.821949999999999      7.056060000000000
C       7.512670000000000    -10.201140000000001      9.015610000000001
C       7.988780000000000    -12.253340000000000      7.978410000000000
O       8.135280000000000    -10.850370000000000      7.926370000000000
C       8.471730000000001    -10.066850000000001     10.194100000000001
C       6.767600000000000    -12.677600000000000      7.175270000000000
H       7.234530000000000     -9.180479999999999      8.679760000000000
H       6.564550000000000    -10.694660000000001      9.323670000000000
H       8.892830000000000    -12.706540000000000      7.516940000000000
H       7.941180000000000    -12.650399999999999      9.017519999999999
H       6.859430000000000    -12.315289999999999      6.129040000000000
H       6.689230000000000    -13.784269999999999      7.170060000000000
H       5.847470000000000    -12.251749999999999      7.625810000000000
H       9.392480000000001     -9.533099999999999      9.879840000000000
H       7.981480000000000     -9.486700000000001     11.003610000000000
H       8.749370000000001    -11.065320000000000     10.589250000000000
C      12.356130000000000     -9.328139999999999      4.902300000000000
C      10.666230000000001    -10.651240000000000      3.976100000000000
O      11.242889999999999    -10.155469999999999      5.162530000000000
C      11.931060000000000     -7.881490000000000      4.662350000000000
C       9.380140000000001    -11.385140000000000      4.338160000000000
H      12.994120000000001     -9.344510000000000      5.811340000000000
H      12.989280000000001     -9.710929999999999      4.070940000000000
H      10.397830000000001     -9.829990000000000      3.277000000000000
H      11.355050000000000    -11.371490000000000      3.483780000000000
H       8.668060000000001    -10.692410000000001      4.836110000000000
H       8.902150000000001    -11.791029999999999      3.422420000000000
H       9.602280000000000    -12.224250000000000      5.031210000000000
H      11.320580000000000     -7.514800000000000      5.512960000000000
H      12.835290000000001     -7.245880000000000      4.575290000000000
H      11.342660000000000     -7.788230000000000      3.727160000000000
C      12.631830000000001    -10.559620000000001      8.663679999999999
C      12.167790000000000     -8.342409999999999      9.276140000000000
O      11.820349999999999     -9.424490000000000      8.438060000000000
C      11.988239999999999    -11.482379999999999      9.692100000000000
C      13.171680000000000     -7.434910000000000      8.577230000000000
H      12.715470000000000    -11.111499999999999      7.703230000000000
H      13.672250000000000    -10.296559999999999      8.961180000000001
H      11.244380000000000     -7.759610000000000      9.475310000000000
H      12.547090000000001     -8.666490000000000     10.271860000000000
H      12.756570000000000     -7.083150000000000      7.609330000000000
H      13.386120000000000     -6.554510000000000      9.217850000000000
H      14.117780000000000     -7.982140000000000      8.386550000000000
H      10.975009999999999    -11.783899999999999      9.351220000000000
H      12.610849999999999    -12.393359999999999      9.814570000000000
H      11.904610000000000    -10.970829999999999     10.673220000000001
C       9.164720000000001     -6.438260000000000      7.397830000000000
C       7.730460000000000     -7.737160000000000      6.071430000000000
O       8.886139999999999     -7.725680000000000      6.886410000000000
C       8.490750000000000     -6.240610000000000      8.750610000000000
C       8.096489999999999     -7.483390000000000      4.613900000000000
H      10.263199999999999     -6.362410000000000      7.538640000000000
H       8.888130000000000     -5.622100000000000      6.692830000000000
H       7.274340000000000     -8.747380000000000      6.145500000000000
H       6.950630000000000     -7.020690000000000      6.415170000000000
H       8.831960000000000     -8.238450000000000      4.271790000000000
H       7.186370000000000     -7.559180000000000      3.983060000000000
H       8.535380000000000     -6.472300000000000      4.492050000000000
H       8.814090000000000     -7.032620000000000      9.458000000000000
H       8.775309999999999     -5.251170000000000      9.165319999999999
H       7.387250000000000     -6.280880000000000      8.644170000000001
Mg     12.189000000000000     -0.652580000000000      0.732260000000000
C      14.289310000000000      0.694970000000000      1.912110000000000
C      15.114940000000001      0.962740000000000      4.079070000000000
O      14.450010000000001      0.097900000000000      3.184390000000000
C      15.559290000000001      0.713510000000000      1.090310000000000
C      14.694910000000000      0.624100000000000      5.504580000000000
H      12.203170000000000      1.002740000000000      3.333590000000000
H      13.783040000000000      1.683910000000000      1.938180000000000
H      16.210270000000001      0.810070000000000      3.983240000000000
H      14.866680000000001      2.034900000000000      3.911530000000000
H      14.922470000000001     -0.439100000000000      5.731810000000000
H      15.245080000000000      1.271160000000000      6.219670000000000
H      13.606030000000001      0.794180000000000      5.640030000000000
H      16.001339999999999     -0.298810000000000      1.061430000000000
H      15.304580000000000      1.034660000000000      0.059190000000000
H      16.283740000000002      1.425400000000000      1.531450000000000
H      11.314640000000001      0.913010000000000     -1.311260000000000
C      12.052149999999999     -0.749620000000000     -2.502190000000000
C      12.166740000000001      0.204860000000000     -1.302200000000000
C      10.798460000000000     -1.629690000000000     -2.446190000000000
H      12.025499999999999     -0.140650000000000     -3.432440000000000
H      12.951530000000000     -1.385580000000000     -2.546860000000000
H      10.818910000000001     -2.245690000000000     -1.525460000000000
H       9.896440000000000     -0.985740000000000     -2.433880000000000
C      10.692090000000000     -2.555660000000000     -3.659120000000000
H      13.107590000000000      0.785530000000000     -1.408560000000000
H      10.634810000000000     -1.960890000000000     -4.595550000000000
H      11.562370000000000     -3.241770000000000     -3.716460000000000
H       9.769200000000000     -3.169280000000000     -3.578140000000000
C       9.255179999999999     -0.509040000000000      0.757240000000000
C       8.076370000000001     -0.319900000000000      1.431420000000000
C       8.409730000000000     -0.099780000000000      2.745050000000000
C       9.786339999999999     -0.152690000000000      2.817860000000000
N      10.302250000000001     -0.414050000000000      1.587110000000000
C      10.546749999999999      0.079500000000000      4.093360000000000
N      11.463530000000000      1.226520000000000      4.020440000000000
C      10.933809999999999      2.591290000000000      3.761660000000000
H       7.087760000000000     -0.339430000000000      1.004460000000000
H       9.347580000000001     -0.700870000000000     -0.294650000000000
H       7.724840000000000      0.092560000000000      3.558830000000000
H       9.846299999999999      0.222790000000000      4.942930000000000
H      11.129000000000000     -0.828620000000000      4.346480000000000
C       9.714410000000001      2.905700000000000      4.650760000000000
C      12.053369999999999      3.592580000000000      4.107360000000000
C      10.572430000000001      2.797160000000000      2.271050000000000
H       9.974510000000000      2.778850000000000      5.723610000000000
H       9.373880000000000      3.950840000000000      4.489160000000000
H       8.860560000000000      2.240690000000000      4.410420000000000
H      12.948620000000000      3.413160000000000      3.476280000000000
H      11.718130000000000      4.637990000000000      3.930730000000000
H      12.353420000000000      3.494870000000000      5.172580000000000
H      11.437220000000000      2.544010000000000      1.620030000000000
H       9.705430000000000      2.194750000000000      1.955420000000000
H      10.291729999999999      3.853850000000000      2.080570000000000
Mg     12.134250000000000     -3.951670000000000     -0.590900000000000
H       9.894290000000000     -4.928150000000000     -1.651480000000000
C       9.605930000000001     -5.344950000000000      0.448280000000000
C      10.472569999999999     -5.328800000000000     -0.791800000000000
C       9.249710000000000     -3.915070000000000      0.843100000000000
H       8.687620000000001     -5.939130000000000      0.251110000000000
H      10.165430000000001     -5.831950000000000      1.271130000000000
H      10.182140000000000     -3.333720000000000      0.985860000000000
H       8.664170000000000     -3.426260000000000      0.034530000000000
C       8.452690000000000     -3.905470000000000      2.140320000000000
H      10.812740000000000     -6.355130000000000     -1.045530000000000
H       7.499140000000000     -4.456420000000000      2.005090000000000
H       9.042540000000001     -4.376620000000000      2.955390000000000
H       8.224480000000000     -2.865060000000000      2.435060000000000
C      15.308640000000000     -6.013110000000000     -1.563520000000000
C      14.636620000000001     -5.407190000000000     -2.600480000000000
C      14.343360000000001     -4.120420000000000     -2.202270000000000
C      14.801480000000000     -3.951640000000000     -0.959350000000000
N      15.444240000000001     -5.114830000000000     -0.494320000000000
C      14.572800000000001     -2.729020000000000     -0.121180000000000
N      13.408350000000000     -2.942150000000000      0.751810000000000
C      13.578460000000000     -3.544870000000000      2.097800000000000
H      14.367330000000001     -5.867680000000000     -3.540990000000000
H      15.666090000000001     -7.031670000000000     -1.556130000000000
H      13.781829999999999     -3.404280000000000     -2.779110000000000
H      14.292090000000000     -1.898240000000000     -0.798260000000000
H      15.491300000000001     -2.383150000000000      0.382850000000000
C      14.987579999999999     -3.323100000000000      2.695080000000000
C      12.568580000000001     -2.867920000000000      3.041190000000000
C      13.267270000000000     -5.042240000000000      2.049360000000000
H      15.230969999999999     -2.242250000000000      2.739390000000000
H      15.040940000000001     -3.724210000000000      3.729840000000000
H      15.764550000000000     -3.841190000000000      2.096960000000000
H      11.529809999999999     -2.987340000000000      2.683800000000000
H      12.623950000000001     -3.294140000000000      4.066470000000000
H      12.780120000000000     -1.783230000000000      3.104060000000000
H      12.238160000000001     -5.200610000000000      1.685500000000000
H      13.957560000000001     -5.581190000000000      1.381270000000000
H      13.353330000000000     -5.486210000000000      3.061880000000000
