110

Na     -0.001200000000000      2.197440000000000      0.000640000000000
C       0.577160000000000     -1.042410000000000      1.003560000000000
C      -0.581450000000000     -1.041640000000000     -1.001550000000000
O       0.001430000000000     -0.239210000000000     -0.000860000000000
C       1.187710000000000     -0.124380000000000      2.055740000000000
C      -1.186550000000000     -0.123910000000000     -2.056780000000000
H      -0.195080000000000     -1.672310000000000      1.500940000000000
H       1.390940000000000     -1.677930000000000      0.586340000000000
H       0.185660000000000     -1.679000000000000     -1.497270000000000
H      -1.400060000000000     -1.667840000000000     -0.580830000000000
H      -0.396600000000000      0.520860000000000     -2.498730000000000
H      -1.655320000000000     -0.722840000000000     -2.865340000000000
H      -1.961110000000000      0.526220000000000     -1.595890000000000
H       0.401140000000000      0.525690000000000      2.495960000000000
H       1.653970000000000     -0.722720000000000      2.866130000000000
H       1.965210000000000      0.520740000000000      1.592640000000000
Na      7.522280000000000    -16.204260000000001     -0.533710000000000
C       4.342880000000000    -15.034590000000000     -1.533520000000000
C       4.921250000000000    -14.037670000000000      0.466990000000000
O       5.334220000000000    -14.936489999999999     -0.536570000000000
C       4.823680000000000    -16.015709999999999     -2.593060000000000
C       6.014800000000000    -13.958790000000000      1.522280000000000
H       3.389640000000000    -15.425280000000001     -1.109770000000000
H       4.176580000000000    -14.049700000000000     -2.026420000000000
H       4.771740000000000    -13.016170000000001      0.048600000000000
H       3.992650000000000    -14.398450000000000      0.963710000000000
H       6.961300000000000    -13.602440000000000      1.062190000000000
H       5.717140000000000    -13.254899999999999      2.327420000000000
H       6.186260000000000    -14.963080000000000      1.965760000000000
H       4.997320000000000    -17.013169999999999     -2.135180000000000
H       4.062850000000000    -16.114229999999999     -3.395290000000000
H       5.775100000000000    -15.655080000000000     -3.039700000000000
Mg     -2.610030000000000     -8.575379999999999     -1.487610000000000
H      -3.329840000000000    -11.117810000000000     -0.409600000000000
C      -5.127660000000000    -10.343389999999999     -1.345670000000000
C      -3.834600000000000    -10.138830000000000     -0.569600000000000
C      -4.939690000000000    -11.120400000000000     -2.657810000000000
H      -5.829590000000000    -10.917170000000000     -0.706060000000000
H      -5.555020000000000     -9.343629999999999     -1.544370000000000
H      -4.207180000000000    -10.615650000000000     -3.323180000000000
H      -4.570200000000000    -12.143020000000000     -2.430350000000000
C      -6.275710000000000    -11.253200000000000     -3.388960000000000
H      -4.059980000000000     -9.708580000000000      0.425110000000000
H      -7.026120000000000    -11.749800000000000     -2.737010000000000
H      -6.659410000000000    -10.254060000000001     -3.671580000000000
H      -6.153550000000000    -11.855580000000000     -4.313210000000000
C      -0.479930000000000    -13.186520000000000     -4.785050000000000
C      -1.746610000000000    -13.064060000000000     -4.258440000000000
C      -1.623450000000000    -13.061590000000001     -2.881480000000000
C      -0.326370000000000    -13.162520000000001     -2.584170000000000
N       0.463360000000000    -13.250460000000000     -3.744590000000000
C       0.230250000000000    -13.193960000000001     -1.195040000000000
N      -0.121810000000000    -11.958980000000000     -0.487750000000000
C       0.032430000000000    -11.926940000000000      0.987270000000000
H      -2.664600000000000    -12.984140000000000     -4.827090000000000
H      -0.233480000000000    -13.219860000000001     -5.835990000000000
H      -2.426060000000000    -12.986739999999999     -2.163740000000000
H      -0.189310000000000    -14.086890000000000     -0.696250000000000
H       1.335460000000000    -13.286640000000000     -1.248690000000000
C       1.510060000000000    -12.154410000000000      1.354060000000000
C      -0.393660000000000    -10.541010000000000      1.489160000000000
C      -0.850350000000000    -12.982120000000000      1.697960000000000
H       2.148610000000000    -11.401669999999999      0.843280000000000
H       1.665780000000000    -12.066990000000001      2.450610000000000
H       1.841230000000000    -13.166520000000000      1.043830000000000
H      -1.463370000000000    -10.355230000000001      1.253670000000000
H      -0.267780000000000    -10.463380000000001      2.592400000000000
H       0.221030000000000     -9.752590000000000      1.010140000000000
H      -1.925050000000000    -12.825260000000000      1.465300000000000
H      -0.573690000000000    -14.019320000000000      1.424730000000000
H      -0.721120000000000    -12.909179999999999      2.801260000000000
Mg     -1.350280000000000    -10.611800000000001     -1.529420000000000
H      -0.640060000000000     -8.073860000000000     -2.625780000000000
C      -0.043460000000000     -9.546329999999999     -4.103880000000000
C      -0.232430000000000     -9.109030000000001     -2.658680000000000
C      -1.308150000000000     -9.390790000000001     -4.962390000000000
H       0.754550000000000     -8.920920000000001     -4.554360000000000
H       0.288680000000000    -10.600440000000001     -4.088950000000000
H      -2.159680000000000     -9.959940000000000     -4.532180000000000
H      -1.586820000000000     -8.316739999999999     -5.015570000000000
C      -1.043260000000000     -9.880530000000000     -6.386110000000000
H       0.744850000000000     -9.103960000000001     -2.138880000000000
H      -0.188420000000000     -9.328510000000000     -6.832550000000000
H      -0.802380000000000    -10.960940000000001     -6.381530000000000
H      -1.938930000000000     -9.724140000000000     -7.022740000000000
C      -6.149330000000000     -7.544700000000000     -3.583900000000000
C      -4.936000000000000     -7.699100000000000     -4.216970000000000
C      -3.979620000000000     -7.078450000000000     -3.434980000000000
C      -4.589230000000000     -6.579390000000000     -2.357940000000000
N      -5.972360000000000     -6.833360000000000     -2.384380000000000
C      -3.902560000000000     -5.828250000000000     -1.260170000000000
N      -2.887040000000000     -6.678050000000000     -0.631080000000000
C      -1.870380000000000     -6.031580000000000      0.234930000000000
H      -4.771500000000000     -8.214470000000000     -5.154870000000000
H      -7.098970000000000     -7.916810000000000     -3.939050000000000
H      -2.923450000000000     -7.007170000000000     -3.645390000000000
H      -3.458190000000000     -4.923240000000000     -1.713570000000000
H      -4.654410000000000     -5.528780000000000     -0.500300000000000
C      -2.567980000000000     -5.347870000000000      1.425080000000000
C      -0.930400000000000     -7.118650000000000      0.772380000000000
C      -1.011410000000000     -4.995860000000000     -0.531530000000000
H      -3.187160000000000     -6.087590000000000      1.977220000000000
H      -1.823060000000000     -4.914670000000000      2.126480000000000
H      -3.227040000000000     -4.524420000000000      1.079420000000000
H      -0.398040000000000     -7.618920000000000     -0.064490000000000
H      -0.165280000000000     -6.680280000000000      1.451610000000000
H      -1.505390000000000     -7.879930000000000      1.337310000000000
H      -0.479050000000000     -5.470740000000000     -1.382710000000000
H      -1.613270000000000     -4.149950000000000     -0.915810000000000
H      -0.250450000000000     -4.549660000000000      0.147790000000000
