110

Na      1.578530000000000     -0.978180000000000      0.911910000000000
C      -0.261010000000000      0.635300000000000     -1.488450000000000
C      -1.419630000000000      0.636040000000000      0.518240000000000
O      -0.238120000000000      0.236160000000000     -0.137250000000000
C       1.037340000000000      0.177860000000000     -2.142930000000000
C      -1.336660000000000      0.181050000000000      1.970420000000000
H      -1.107690000000000      0.156080000000000     -2.030290000000000
H      -0.318420000000000      1.744230000000000     -1.574710000000000
H      -1.523170000000000      1.744910000000000      0.510510000000000
H      -2.312140000000000      0.155800000000000      0.056760000000000
H      -0.454800000000000      0.642540000000000      2.464550000000000
H      -2.253380000000000      0.478070000000000      2.521440000000000
H      -1.231890000000000     -0.923370000000000      2.017300000000000
H       1.128130000000000     -0.927860000000000     -2.076570000000000
H       1.056590000000000      0.476010000000000     -3.212080000000000
H       1.906680000000000      0.639000000000000     -1.626440000000000
Na      7.183900000000000    -13.785580000000000      4.684070000000000
C       5.267460000000000    -12.123749999999999      2.243570000000000
C       4.112790000000000    -12.124260000000000      4.243190000000000
O       5.295960000000000    -12.528130000000001      3.593010000000000
C       6.559510000000000    -12.576480000000000      1.579210000000000
C       4.185160000000000    -12.576240000000000      5.694910000000000
H       4.417400000000000    -12.599890000000000      1.704100000000000
H       5.211450000000000    -11.014709999999999      2.163530000000000
H       4.012260000000000    -11.014980000000000      4.232750000000000
H       3.220930000000000    -12.602080000000001      3.777440000000000
H       5.065140000000000    -12.114760000000000      6.192350000000000
H       3.264690000000000    -12.272560000000000      6.235890000000000
H       4.284300000000000    -13.681920000000000      5.743270000000000
H       6.650280000000000    -13.682200000000000      1.640540000000000
H       6.566530000000000    -12.272069999999999      0.511760000000000
H       7.430890000000000    -12.115640000000001      2.092210000000000
Mg      0.112060000000000     -8.253110000000000     -0.091930000000000
H      -2.279290000000000     -7.688590000000000      2.184420000000000
C      -0.970880000000000     -5.955060000000000      1.829230000000000
C      -1.236070000000000     -7.451770000000000      1.896470000000000
C      -1.899730000000000     -5.284740000000000      0.814120000000000
H      -1.131160000000000     -5.522640000000000      2.838680000000000
H       0.086860000000000     -5.788820000000000      1.528630000000000
H      -1.723940000000000     -5.713580000000000     -0.193440000000000
H      -2.957510000000000     -5.468680000000000      1.100060000000000
C      -1.659380000000000     -3.779750000000000      0.756700000000000
H      -0.511750000000000     -7.953000000000000      2.572640000000000
H      -1.828370000000000     -3.331340000000000      1.758200000000000
H      -0.620560000000000     -3.563010000000000      0.428080000000000
H      -2.364590000000000     -3.315870000000000      0.035160000000000
C       0.927690000000000     -5.575970000000000     -1.492330000000000
C       0.806160000000000     -4.908170000000000     -2.698800000000000
C       0.125520000000000     -5.755060000000000     -3.550870000000000
C      -0.132150000000000     -6.895680000000000     -2.825700000000000
N       0.357260000000000     -6.786700000000000     -1.578740000000000
C      -0.839870000000000     -8.112270000000001     -3.269040000000000
N      -1.760450000000000     -8.526130000000000     -2.203040000000000
C      -3.183240000000000     -8.220380000000000     -2.364710000000000
H       1.164530000000000     -3.914550000000000     -2.926480000000000
H       1.391110000000000     -5.184770000000000     -0.595570000000000
H      -0.146430000000000     -5.562230000000000     -4.581960000000000
H      -0.051800000000000     -8.874340000000000     -3.338990000000000
H      -1.296200000000000     -8.030989999999999     -4.277290000000000
C      -3.814880000000000     -9.238989999999999     -3.329310000000000
C      -3.831310000000000     -8.367850000000001     -0.978410000000000
C      -3.406670000000000     -6.776190000000000     -2.849430000000000
H      -3.672750000000000    -10.274470000000001     -2.945400000000000
H      -4.903110000000000     -9.050440000000000     -3.439130000000000
H      -3.346310000000000     -9.180809999999999     -4.332780000000000
H      -3.369970000000000     -7.662350000000000     -0.256350000000000
H      -4.922910000000000     -8.175030000000000     -1.022040000000000
H      -3.682340000000000     -9.385339999999999     -0.578670000000000
H      -2.908320000000000     -6.064430000000000     -2.159600000000000
H      -2.999740000000000     -6.617820000000000     -3.867730000000000
H      -4.490510000000000     -6.543070000000000     -2.876140000000000
Mg     -0.655140000000000    -10.724539999999999     -2.244840000000000
H       0.044720000000000    -12.817500000000001     -3.984630000000000
C      -0.611490000000000    -11.182130000000001     -5.302250000000000
C      -0.696180000000000    -11.993770000000000     -4.004030000000000
C       0.808290000000000    -10.675200000000000     -5.578700000000000
H      -0.914740000000000    -11.833670000000000     -6.149420000000000
H      -1.327180000000000    -10.333550000000001     -5.244100000000000
H       1.167110000000000    -10.036220000000000     -4.757080000000000
H       1.490430000000000    -11.547160000000000     -5.671850000000000
C       0.870770000000000     -9.855130000000001     -6.864240000000000
H      -1.716020000000000    -12.431880000000000     -3.944320000000000
H       0.527260000000000    -10.459730000000000     -7.729800000000000
H       0.235830000000000     -8.947480000000001     -6.774270000000000
H       1.918950000000000     -9.535570000000000     -7.047130000000000
C      -1.451780000000000    -14.213460000000000     -0.835980000000000
C      -2.589050000000000    -13.440810000000001     -0.893430000000000
C      -2.275390000000000    -12.212230000000000     -0.349730000000000
C      -0.991270000000000    -12.222070000000000      0.011030000000000
N      -0.400570000000000    -13.472200000000001     -0.269120000000000
C      -0.254370000000000    -11.039980000000000      0.584530000000000
N       0.429990000000000    -10.294919999999999     -0.492660000000000
C       1.898440000000000    -10.426810000000000     -0.567500000000000
H      -3.545460000000000    -13.742470000000001     -1.300410000000000
H      -1.369880000000000    -15.233240000000000     -1.184520000000000
H      -2.947410000000000    -11.378620000000000     -0.264300000000000
H       0.394590000000000    -11.348979999999999      1.428610000000000
H      -1.011140000000000    -10.355950000000000      1.024270000000000
C       2.336730000000000    -11.895770000000001     -0.684180000000000
C       2.370700000000000     -9.678150000000000     -1.818340000000000
C       2.558790000000000     -9.757690000000000      0.663050000000000
H       1.860470000000000    -12.367310000000000     -1.570280000000000
H       3.440030000000000    -11.955840000000000     -0.799210000000000
H       2.064570000000000    -12.472049999999999      0.222820000000000
H       2.070990000000000     -8.613810000000001     -1.780350000000000
H       3.475460000000000     -9.714950000000000     -1.915380000000000
H       1.924370000000000    -10.139430000000001     -2.715680000000000
H       2.275130000000000     -8.685390000000000      0.732110000000000
H       2.270870000000000    -10.242910000000000      1.616150000000000
H       3.664120000000000     -9.803430000000001      0.583680000000000
