155

Na      0.373340000000000     -0.000810000000000      0.049230000000000
C      -0.545410000000000      2.432140000000000      1.809470000000000
C       1.765190000000000      2.121660000000000      2.114910000000000
O       0.549450000000000      1.547460000000000      1.686930000000000
C      -0.724850000000000      3.273080000000000      0.548730000000000
C       1.995850000000000      1.825230000000000      3.590980000000000
H      -1.457770000000000      1.814130000000000      1.939110000000000
H      -0.476550000000000      3.074670000000000      2.713550000000000
H       2.585280000000000      1.651700000000000      1.529470000000000
H       1.825500000000000      3.213220000000000      1.908360000000000
H       1.985140000000000      0.727920000000000      3.765050000000000
H       2.980400000000000      2.230400000000000      3.902960000000000
H       1.201720000000000      2.295660000000000      4.206090000000000
H      -0.841930000000000      2.618690000000000     -0.339710000000000
H      -1.637830000000000      3.896550000000000      0.651620000000000
H       0.146350000000000      3.941450000000000      0.394350000000000
C       1.245940000000000     -2.608230000000000     -1.582620000000000
C       2.208080000000000     -2.626800000000000      0.552910000000000
O       1.592680000000000     -1.847120000000000     -0.446280000000000
C      -0.121100000000000     -3.269710000000000     -1.419930000000000
C       2.397100000000000     -1.753470000000000      1.789410000000000
H       1.173870000000000     -1.901200000000000     -2.436100000000000
H       2.030850000000000     -3.347170000000000     -1.855760000000000
H       1.575470000000000     -3.492040000000000      0.845760000000000
H       3.207110000000000     -2.973480000000000      0.211620000000000
H       1.414720000000000     -1.387230000000000      2.158070000000000
H       2.887160000000000     -2.333590000000000      2.598690000000000
H       3.030920000000000     -0.875490000000000      1.542230000000000
H      -0.889090000000000     -2.509380000000000     -1.169430000000000
H      -0.408290000000000     -3.763950000000000     -2.371560000000000
H      -0.097520000000000     -4.035200000000000     -0.620090000000000
C       1.405850000000000      1.142990000000000     -2.711640000000000
C      -0.930810000000000      1.017510000000000     -2.927580000000000
O       0.191790000000000      0.718850000000000     -2.125460000000000
C       1.765650000000000      2.552680000000000     -2.254330000000000
C      -1.255730000000000     -0.152530000000000     -3.848530000000000
H       2.205160000000000      0.453330000000000     -2.365290000000000
H       1.395510000000000      1.073960000000000     -3.822300000000000
H      -1.794280000000000      1.178100000000000     -2.249090000000000
H      -0.812990000000000      1.962500000000000     -3.503340000000000
H      -1.418640000000000     -1.075560000000000     -3.253000000000000
H      -2.180150000000000      0.071470000000000     -4.420390000000000
H      -0.423950000000000     -0.325650000000000     -4.561600000000000
H       1.835610000000000      2.590250000000000     -1.146290000000000
H       2.748620000000000      2.840750000000000     -2.682940000000000
H       1.000220000000000      3.279650000000000     -2.595490000000000
C      -3.003000000000000     -0.687600000000000     -0.001670000000000
C      -1.871870000000000     -1.115470000000000      2.012970000000000
O      -1.771390000000000     -0.632950000000000      0.687670000000000
C      -3.781860000000000      0.611600000000000      0.174800000000000
C      -1.590110000000000     -2.612720000000000      2.070420000000000
H      -2.776340000000000     -0.813140000000000     -1.080990000000000
H      -3.620630000000000     -1.566690000000000      0.286930000000000
H      -1.098850000000000     -0.596680000000000      2.619450000000000
H      -2.849480000000000     -0.874780000000000      2.486440000000000
H      -0.588880000000000     -2.827980000000000      1.647940000000000
H      -1.610300000000000     -2.953600000000000      3.126690000000000
H      -2.351910000000000     -3.177350000000000      1.495670000000000
H      -3.172580000000000      1.475440000000000     -0.164450000000000
H      -4.710610000000000      0.570660000000000     -0.431740000000000
H      -4.055680000000000      0.759650000000000      1.239310000000000
Na     -9.715299999999999    -13.721650000000000      7.031820000000000
C      -7.412690000000000    -11.333480000000000      5.840700000000000
C      -6.635960000000000    -13.448840000000001      5.338570000000000
O      -7.676410000000000    -12.714169999999999      5.941140000000000
C      -8.559780000000000    -10.577109999999999      6.495420000000000
C      -6.957150000000000    -14.930840000000000      5.466520000000000
H      -6.473990000000000    -11.068720000000001      6.378570000000000
H      -7.355180000000000    -11.015879999999999      4.774550000000000
H      -6.557920000000000    -13.207580000000000      4.254650000000000
H      -5.666360000000000    -13.260710000000000      5.853670000000000
H      -7.919210000000000    -15.155200000000001      4.957750000000000
H      -6.152390000000000    -15.537000000000001      5.000480000000000
H      -7.044390000000000    -15.208869999999999      6.538770000000000
H      -8.645260000000000    -10.869090000000000      7.564130000000000
H      -8.380559999999999     -9.483409999999999      6.433380000000000
H      -9.514740000000000    -10.816440000000000      5.980160000000000
Mg     -0.438150000000000     -9.744859999999999      2.079470000000000
H      -0.558890000000000     -6.941250000000000      2.377500000000000
C      -0.621250000000000     -7.436130000000000      0.242970000000000
C      -0.087800000000000     -7.638160000000000      1.654220000000000
C      -2.135370000000000     -7.612460000000000      0.241220000000000
H      -0.358790000000000     -6.431680000000000     -0.147390000000000
H      -0.151510000000000     -8.200279999999999     -0.411000000000000
H      -2.389770000000000     -8.542389999999999      0.766180000000000
H      -2.607370000000000     -6.775780000000000      0.797620000000000
C      -2.690060000000000     -7.691510000000000     -1.175940000000000
H       1.012490000000000     -7.477340000000000      1.656190000000000
H      -2.455010000000000     -6.763850000000000     -1.736600000000000
H      -2.252940000000000     -8.564920000000001     -1.708990000000000
H      -3.791280000000000     -7.825950000000000     -1.133380000000000
C       0.294050000000000    -12.711520000000000     -2.331950000000000
C      -0.804470000000000    -12.072540000000000     -1.802040000000000
C      -0.343090000000000    -11.218570000000000     -0.816890000000000
C       0.980440000000000    -11.331890000000000     -0.745000000000000
N       1.461300000000000    -12.255830000000000     -1.696140000000000
C       1.862400000000000    -10.584140000000000      0.213570000000000
N       1.735830000000000    -11.155600000000000      1.567470000000000
C       2.930380000000000    -11.863360000000000      2.079930000000000
H      -1.833150000000000    -12.224860000000000     -2.104640000000000
H       0.271540000000000    -13.453170000000000     -3.118480000000000
H      -0.939270000000000    -10.562139999999999     -0.211980000000000
H       1.577690000000000     -9.516109999999999      0.228140000000000
H       2.899960000000000    -10.592190000000000     -0.160550000000000
C       4.018040000000000    -10.830430000000000      2.422560000000000
C       2.556960000000000    -12.623329999999999      3.367740000000000
C       3.439320000000000    -12.929160000000000      1.082980000000000
H       3.622750000000000    -10.095860000000000      3.158750000000000
H       4.907590000000000    -11.325030000000000      2.862500000000000
H       4.338710000000000    -10.264160000000000      1.526000000000000
H       1.745860000000000    -13.349720000000000      3.166840000000000
H       3.428460000000000    -13.185070000000000      3.764760000000000
H       2.235320000000000    -11.951890000000001      4.176660000000000
H       2.628470000000000    -13.655980000000000      0.861830000000000
H       3.789760000000000    -12.503019999999999      0.125850000000000
H       4.297420000000000    -13.481220000000000      1.520170000000000
Mg     -0.207990000000000    -12.775670000000000      1.793110000000000
H      -1.290820000000000    -15.052460000000000      0.624970000000000
C       0.409170000000000    -15.830620000000000      1.773130000000000
C      -0.266620000000000    -14.751099999999999      0.922900000000000
C      -0.410290000000000    -16.222890000000000      3.007300000000000
H       0.502450000000000    -16.735820000000000      1.136770000000000
H       1.435180000000000    -15.515200000000000      2.065230000000000
H      -1.439380000000000    -16.491270000000000      2.684400000000000
H       0.053860000000000    -17.118120000000001      3.472910000000000
C      -0.468190000000000    -15.133080000000000      4.068990000000000
H       0.337750000000000    -14.623410000000000     -0.001680000000000
H       0.547340000000000    -14.917149999999999      4.460210000000000
H      -0.900410000000000    -14.212990000000000      3.650070000000000
H      -1.106190000000000    -15.471600000000000      4.912110000000000
C      -0.732470000000000     -8.255200000000000      5.961990000000000
C       0.567500000000000     -8.382520000000000      5.526860000000000
C       0.654800000000000     -9.587690000000000      4.862090000000000
C      -0.542610000000000    -10.177989999999999      4.881980000000000
N      -1.476530000000000     -9.374820000000000      5.576660000000000
C      -0.881510000000000    -11.524630000000000      4.305190000000000
N      -1.366010000000000    -11.434880000000000      2.913330000000000
C      -2.834260000000000    -11.567720000000000      2.695350000000000
H       1.363750000000000     -7.669730000000000      5.684600000000000
H      -1.128130000000000     -7.418690000000000      6.520940000000000
H       1.556280000000000     -9.963960000000000      4.408670000000000
H      -1.544740000000000    -12.075870000000000      4.992760000000000
H       0.041100000000000    -12.126320000000000      4.292760000000000
C      -3.583460000000000    -10.421490000000000      3.397480000000000
C      -3.150810000000000    -11.513949999999999      1.190120000000000
C      -3.364220000000000    -12.936080000000000      3.181480000000000
H      -3.208530000000000     -9.438620000000000      3.035220000000000
H      -4.674060000000000    -10.479590000000000      3.199480000000000
H      -3.447860000000000    -10.476550000000000      4.494290000000000
H      -2.623690000000000    -12.323620000000000      0.642880000000000
H      -4.242700000000000    -11.632339999999999      1.014600000000000
H      -2.875480000000000    -10.555050000000000      0.747580000000000
H      -2.857400000000000    -13.757980000000000      2.633590000000000
H      -3.242460000000000    -13.098179999999999      4.267470000000000
H      -4.451340000000000    -13.019769999999999      2.972970000000000
