125

Na      0.121570000000000      1.983390000000000     -0.917060000000000
C      -0.355200000000000     -0.428340000000000      1.487690000000000
C       0.225230000000000     -1.431260000000000     -0.518780000000000
O      -0.016020000000000     -0.208090000000000      0.138100000000000
C      -0.603770000000000      0.924780000000000      2.143720000000000
C       0.583200000000000     -1.127730000000000     -1.968560000000000
H      -1.289950000000000     -1.028010000000000      1.569940000000000
H       0.479420000000000     -0.926770000000000      2.030840000000000
H       1.083430000000000     -1.969630000000000     -0.055980000000000
H      -0.685790000000000     -2.071850000000000     -0.515030000000000
H       1.491920000000000     -0.489700000000000     -2.010340000000000
H       0.780440000000000     -2.066270000000000     -2.524250000000000
H      -0.254470000000000     -0.590430000000000     -2.462780000000000
H      -1.434330000000000      1.451780000000000      1.626450000000000
H      -0.873760000000000      0.791680000000000      3.212190000000000
H       0.311150000000000      1.552430000000000      2.079970000000000
Na     14.860920000000000    -15.116390000000001     -0.603300000000000
C      11.684659999999999    -13.949090000000000     -1.601100000000000
C      12.262890000000001    -12.949320000000000      0.399640000000000
O      12.673320000000000    -13.851960000000000     -0.601930000000000
C      12.167560000000000    -14.929950000000000     -2.660300000000000
C      13.358530000000000    -12.876530000000001      1.453260000000000
H      10.731000000000000    -14.340150000000000     -1.179120000000000
H      11.520200000000001    -12.964029999999999     -2.094140000000000
H      12.119710000000000    -11.927470000000000     -0.019950000000000
H      11.329879999999999    -13.301930000000000      0.895740000000000
H      14.305569999999999    -12.524070000000000      0.991410000000000
H      13.069400000000000    -12.173080000000001      2.259520000000000
H      13.525850000000000    -13.881610000000000      1.896080000000000
H      12.340710000000000    -15.927580000000001     -2.202630000000000
H      11.408049999999999    -15.028670000000000     -3.463800000000000
H      13.119450000000001    -14.569050000000001     -3.105720000000000
Mg      5.679610000000000     -8.143060000000000      2.252620000000000
C       7.407000000000000     -6.148840000000000      2.997050000000000
C       9.519830000000001     -5.403780000000000      2.341870000000000
O       8.320080000000001     -6.017190000000000      1.924580000000000
C       6.723190000000000     -4.852790000000000      3.369180000000000
C      10.657130000000000     -5.863890000000000      1.437270000000000
H       8.743309999999999     -8.274240000000001      2.667180000000000
H       7.820750000000000     -6.681060000000000      3.880320000000000
H       9.412990000000001     -4.302880000000000      2.249860000000000
H       9.803580000000000     -5.670660000000000      3.384640000000000
H      10.429890000000000     -5.621540000000000      0.377360000000000
H      11.597210000000000     -5.351190000000000      1.730610000000000
H      10.809419999999999     -6.959910000000000      1.529240000000000
H       6.291660000000000     -4.385120000000000      2.465870000000000
H       5.912200000000000     -5.080430000000000      4.091330000000000
H       7.453000000000000     -4.163650000000000      3.836560000000000
H       4.446180000000000     -8.981330000000000      4.521530000000000
C       2.693900000000000     -8.169589999999999      3.522600000000000
C       4.188310000000000     -8.115119999999999      3.881160000000000
C       2.323230000000000     -9.399490000000000      2.685660000000000
H       2.107730000000000     -8.184990000000001      4.467710000000000
H       2.420760000000000     -7.251690000000000      2.977990000000000
H       2.898300000000000     -9.390380000000000      1.738420000000000
H       2.569290000000000    -10.318650000000000      3.253850000000000
C       0.829710000000000     -9.443740000000000      2.356480000000000
H       4.372020000000000     -7.183740000000000      4.457860000000000
H       0.228470000000000     -9.484520000000000      3.289600000000000
H       0.523280000000000     -8.556520000000001      1.764820000000000
H       0.607970000000000    -10.353840000000000      1.758550000000000
C       5.638780000000000    -11.073480000000000      2.357840000000000
C       6.275340000000000    -12.282090000000000      2.241640000000000
C       7.573940000000000    -12.007050000000000      1.888740000000000
C       7.679990000000000    -10.633100000000001      1.816150000000000
N       6.479670000000000    -10.062640000000000      2.097970000000000
C       8.971200000000000     -9.931190000000001      1.497800000000000
N       9.425810000000000     -9.044359999999999      2.578610000000000
C       9.730190000000000     -9.599430000000000      3.923690000000000
H       5.834060000000000    -13.253159999999999      2.402150000000000
H       4.610300000000000    -10.933000000000000      2.627450000000000
H       8.361319999999999    -12.727130000000001      1.719100000000000
H       9.769090000000000    -10.668150000000001      1.267350000000000
H       8.850280000000000     -9.334830000000000      0.571840000000000
C      10.613860000000001    -10.857400000000000      3.828390000000000
C      10.509010000000000     -8.520310000000000      4.701390000000000
C       8.444630000000000     -9.910560000000000      4.727550000000000
H      11.544169999999999    -10.626460000000000      3.268570000000000
H      10.888130000000000    -11.220330000000001      4.841810000000000
H      10.083110000000000    -11.683870000000001      3.314060000000000
H       9.900930000000001     -7.597920000000000      4.807720000000000
H      10.765689999999999     -8.876220000000000      5.723110000000000
H      11.450600000000000     -8.257239999999999      4.173760000000000
H       7.785970000000000     -9.016360000000001      4.775100000000000
H       7.869410000000000    -10.749969999999999      4.305560000000000
H       8.697469999999999    -10.211069999999999      5.765510000000000
Mg      3.095370000000000     -8.064970000000001     -0.201680000000000
H       1.627710000000000    -10.240530000000000     -0.629870000000000
C       3.342070000000000    -10.604160000000000     -1.894540000000000
C       2.262370000000000     -9.691440000000000     -1.357200000000000
C       4.285960000000000    -11.004049999999999     -0.764640000000000
H       2.873400000000000    -11.501890000000000     -2.351980000000000
H       3.906880000000000    -10.066220000000000     -2.681240000000000
H       4.700220000000000    -10.090050000000000     -0.295320000000000
H       3.733290000000000    -11.567510000000000      0.017840000000000
C       5.430570000000000    -11.851340000000000     -1.303790000000000
H       1.615770000000000     -9.321109999999999     -2.180700000000000
H       5.033900000000000    -12.787020000000000     -1.749000000000000
H       5.997920000000000    -11.284720000000000     -2.072920000000000
H       6.125060000000000    -12.113360000000000     -0.485150000000000
C       1.547150000000000     -4.838270000000000     -1.594790000000000
C       0.791790000000000     -5.479790000000000     -0.633820000000000
C       1.654900000000000     -5.824360000000000      0.381530000000000
C       2.860600000000000     -5.412100000000000      0.006570000000000
N       2.782970000000000     -4.781290000000000     -1.241690000000000
C       4.139520000000000     -5.688010000000000      0.748580000000000
N       4.793190000000000     -6.878400000000000      0.182370000000000
C       5.773690000000000     -6.745280000000000     -0.924430000000000
H      -0.262230000000000     -5.724000000000000     -0.687670000000000
H       1.182870000000000     -4.448110000000000     -2.529230000000000
H       1.403040000000000     -6.381040000000000      1.265630000000000
H       3.873020000000000     -5.959940000000000      1.788930000000000
H       4.775500000000000     -4.792000000000000      0.846530000000000
C       6.472030000000000     -5.366710000000000     -0.960590000000000
C       6.867620000000000     -7.807570000000000     -0.711470000000000
C       5.090080000000000     -7.015460000000000     -2.266040000000000
H       6.971510000000000     -5.153530000000000      0.006060000000000
H       7.248680000000000     -5.343070000000000     -1.754660000000000
H       5.748220000000000     -4.555030000000000     -1.177130000000000
H       6.448470000000000     -8.828930000000000     -0.671710000000000
H       7.619180000000000     -7.784080000000000     -1.530340000000000
H       7.392330000000000     -7.623530000000000      0.245200000000000
H       4.650370000000000     -8.027340000000001     -2.264100000000000
H       4.286000000000000     -6.287820000000000     -2.462210000000000
H       5.823780000000000     -6.954630000000000     -3.097600000000000
