110

Na      0.001060000000000      2.197080000000000      0.000660000000000
C       0.579530000000000     -1.042020000000000     -1.002710000000000
C      -0.578440000000000     -1.043570000000000      1.002920000000000
O      -0.000400000000000     -0.240050000000000      0.000030000000000
C       1.186290000000000     -0.123840000000000     -2.056650000000000
C      -1.188390000000000     -0.125400000000000      2.055380000000000
H       1.395500000000000     -1.674010000000000     -0.584260000000000
H      -0.190440000000000     -1.673500000000000     -1.499960000000000
H      -1.392360000000000     -1.678400000000000      0.584590000000000
H       0.192670000000000     -1.674380000000000      1.500570000000000
H      -1.965070000000000      0.520820000000000      1.592450000000000
H      -1.655250000000000     -0.723560000000000      2.865520000000000
H      -0.401270000000000      0.523830000000000      2.496020000000000
H       1.961520000000000      0.525220000000000     -1.595360000000000
H       1.654210000000000     -0.722480000000000     -2.865900000000000
H       0.396910000000000      0.522020000000000     -2.498030000000000
Na      8.664960000000001    -16.208720000000000     -1.369970000000000
C       5.485560000000000    -15.039059999999999     -2.369780000000000
C       6.063940000000000    -14.042130000000000     -0.369270000000000
O       6.476900000000000    -14.940950000000001     -1.372830000000000
C       5.966360000000000    -16.020170000000000     -3.429320000000000
C       7.157480000000000    -13.963260000000000      0.686030000000000
H       4.532320000000000    -15.429750000000000     -1.946030000000000
H       5.319260000000000    -14.054169999999999     -2.862670000000000
H       5.914420000000000    -13.020630000000001     -0.787660000000000
H       5.135340000000000    -14.402920000000000      0.127460000000000
H       8.103980000000000    -13.606900000000000      0.225930000000000
H       6.859820000000000    -13.259370000000001      1.491160000000000
H       7.328950000000000    -14.967549999999999      1.129500000000000
H       6.140000000000000    -17.017630000000000     -2.971430000000000
H       5.205530000000000    -16.118700000000000     -4.231550000000000
H       6.917780000000000    -15.659549999999999     -3.875960000000000
Mg     -1.467320000000000     -8.579490000000000     -2.323520000000000
H      -2.187130000000000    -11.122230000000000     -1.245870000000000
C      -3.984960000000000    -10.347830000000000     -2.181940000000000
C      -2.691900000000000    -10.143250000000000     -1.405860000000000
C      -3.797000000000000    -11.124850000000000     -3.494070000000000
H      -4.686870000000000    -10.921630000000000     -1.542330000000000
H      -4.412340000000000     -9.348080000000000     -2.380630000000000
H      -3.064490000000000    -10.620110000000000     -4.159450000000000
H      -3.427510000000000    -12.147480000000000     -3.266610000000000
C      -5.133020000000000    -11.257660000000000     -4.225220000000000
H      -2.917320000000000     -9.713070000000000     -0.411130000000000
H      -5.883430000000000    -11.754260000000000     -3.573270000000000
H      -5.516730000000000    -10.258520000000001     -4.507840000000000
H      -5.010870000000000    -11.860049999999999     -5.149460000000000
C       0.662750000000000    -13.190980000000000     -5.621310000000000
C      -0.603930000000000    -13.068530000000001     -5.094700000000000
C      -0.480770000000000    -13.066050000000001     -3.717740000000000
C       0.816310000000000    -13.166980000000001     -3.420430000000000
N       1.606040000000000    -13.254930000000000     -4.580850000000000
C       1.372930000000000    -13.198420000000000     -2.031300000000000
N       1.020860000000000    -11.963440000000000     -1.324010000000000
C       1.175100000000000    -11.931390000000000      0.151010000000000
H      -1.521920000000000    -12.988610000000000     -5.663350000000000
H       0.909200000000000    -13.224320000000001     -6.672240000000000
H      -1.283380000000000    -12.991199999999999     -3.000000000000000
H       0.953370000000000    -14.091350000000000     -1.532510000000000
H       2.478140000000000    -13.291100000000000     -2.084950000000000
C       2.652740000000000    -12.158870000000000      0.517800000000000
C       0.749020000000000    -10.545460000000000      0.652900000000000
C       0.292330000000000    -12.986580000000000      0.861700000000000
H       3.291290000000000    -11.406129999999999      0.007020000000000
H       2.808460000000000    -12.071450000000000      1.614350000000000
H       2.983910000000000    -13.170980000000000      0.207570000000000
H      -0.320700000000000    -10.359690000000001      0.417420000000000
H       0.874900000000000    -10.467840000000001      1.756140000000000
H       1.363700000000000     -9.757030000000000      0.173880000000000
H      -0.782370000000000    -12.829720000000000      0.629040000000000
H       0.568990000000000    -14.023780000000000      0.588470000000000
H       0.421560000000000    -12.913639999999999      1.965010000000000
Mg     -0.207620000000000    -10.616239999999999     -2.365670000000000
H       0.502590000000000     -8.078340000000001     -3.462030000000000
C       1.099210000000000     -9.550810000000000     -4.940130000000000
C       0.910220000000000     -9.113500000000000     -3.494930000000000
C      -0.165480000000000     -9.395260000000000     -5.798650000000000
H       1.897230000000000     -8.925390000000000     -5.390620000000000
H       1.431350000000000    -10.604910000000000     -4.925210000000000
H      -1.017000000000000     -9.964410000000001     -5.368440000000000
H      -0.444150000000000     -8.321210000000001     -5.851830000000000
C       0.099420000000000     -9.885000000000000     -7.222370000000000
H       1.887510000000000     -9.108430000000000     -2.975130000000000
H       0.954260000000000     -9.332979999999999     -7.668810000000000
H       0.340300000000000    -10.965410000000000     -7.217790000000000
H      -0.796250000000000     -9.728610000000000     -7.859000000000000
C      -5.006660000000000     -7.549150000000000     -4.420110000000000
C      -3.793290000000000     -7.703550000000000     -5.053100000000000
C      -2.836960000000000     -7.082900000000000     -4.271030000000000
C      -3.446640000000000     -6.583820000000000     -3.194010000000000
N      -4.829770000000000     -6.837800000000000     -3.220580000000000
C      -2.760130000000000     -5.832560000000000     -2.096140000000000
N      -1.744900000000000     -6.682310000000000     -1.466590000000000
C      -0.728190000000000     -6.035650000000000     -0.600730000000000
H      -3.628770000000000     -8.218909999999999     -5.991000000000000
H      -5.956280000000000     -7.921250000000000     -4.775310000000000
H      -1.780790000000000     -7.011640000000000     -4.481440000000000
H      -2.315580000000000     -4.927670000000000     -2.549590000000000
H      -3.512040000000000     -5.532890000000000     -1.336430000000000
C      -1.425490000000000     -5.351000000000000      0.589210000000000
C       0.211850000000000     -7.122790000000000     -0.063390000000000
C       0.130690000000000     -5.000280000000000     -1.367260000000000
H      -2.044670000000000     -6.090480000000000      1.141650000000000
H      -0.680510000000000     -4.917330000000000      1.290270000000000
H      -2.084290000000000     -4.527390000000000      0.243330000000000
H       0.744120000000000     -7.623080000000000     -0.900370000000000
H       0.977140000000000     -6.684530000000000      0.615690000000000
H      -0.363030000000000     -7.884140000000000      0.501500000000000
H       0.662820000000000     -5.475210000000000     -2.218610000000000
H      -0.471160000000000     -4.154040000000000     -1.750860000000000
H       0.891770000000000     -4.554720000000000     -0.687800000000000
