125

Na      0.001180000000000      2.196520000000000      0.000730000000000
C       0.581160000000000     -1.041520000000000     -1.001870000000000
C      -0.577720000000000     -1.042300000000000      1.003260000000000
O      -0.001860000000000     -0.239170000000000     -0.001180000000000
C       1.186180000000000     -0.123750000000000     -2.057090000000000
C      -1.187610000000000     -0.124210000000000      2.055770000000000
H       1.400020000000000     -1.666770000000000     -0.581170000000000
H      -0.185550000000000     -1.679530000000000     -1.497410000000000
H      -1.391850000000000     -1.677350000000000      0.586010000000000
H       0.194280000000000     -1.672560000000000      1.500530000000000
H      -1.964710000000000      0.521570000000000      1.592910000000000
H      -1.654240000000000     -0.722490000000000      2.866000000000000
H      -0.400610000000000      0.525190000000000      2.496220000000000
H       1.960370000000000      0.526780000000000     -1.596090000000000
H       1.655510000000000     -0.722590000000000     -2.865390000000000
H       0.396070000000000      0.520600000000000     -2.499300000000000
Na     -5.383940000000000    -14.110210000000000     -1.082300000000000
C      -2.977380000000000    -13.278000000000000      1.359560000000000
C      -2.400460000000000    -12.278150000000000     -0.641510000000000
O      -3.342060000000000    -13.099640000000001      0.010340000000000
C      -4.018520000000000    -14.167389999999999      2.024550000000000
C      -2.834450000000000    -12.113550000000000     -2.090790000000000
H      -1.989280000000000    -13.785620000000000      1.439850000000000
H      -2.962380000000000    -12.303710000000001      1.899030000000000
H      -2.364320000000000    -11.267070000000000     -0.175540000000000
H      -1.390160000000000    -12.747410000000000     -0.634940000000000
H      -3.840400000000000    -11.643860000000000     -2.134110000000000
H      -2.114890000000000    -11.470640000000000     -2.636140000000000
H      -2.878440000000000    -13.105950000000000     -2.588270000000000
H      -4.059560000000000    -15.152160000000000      1.511480000000000
H      -3.758430000000000    -14.327310000000001      3.091780000000000
H      -5.019800000000000    -13.689249999999999      1.964760000000000
Mg      4.749970000000000     -8.296200000000001      1.057670000000000
C       3.833050000000000     -6.143130000000000     -0.370410000000000
C       1.765890000000000     -5.147000000000000     -0.796540000000000
O       2.536440000000000     -5.879650000000000      0.130260000000000
C       4.751580000000000     -4.942910000000000     -0.327940000000000
C       0.289300000000000     -5.447230000000000     -0.567510000000000
H       2.275500000000000     -8.095000000000001     -0.789160000000000
H       3.841300000000000     -6.650960000000000     -1.358660000000000
H       1.939900000000000     -4.064290000000000     -0.632250000000000
H       1.992910000000000     -5.410500000000000     -1.853910000000000
H       0.002200000000000     -5.200710000000000      0.476780000000000
H      -0.326740000000000     -4.839820000000000     -1.263380000000000
H       0.077320000000000     -6.521370000000000     -0.753410000000000
H       4.742210000000000     -4.500660000000000      0.684600000000000
H       5.779280000000000     -5.280790000000000     -0.574520000000000
H       4.420980000000000     -4.190080000000000     -1.069550000000000
H       6.823410000000000     -9.333050000000000     -0.355710000000000
C       7.953160000000000     -8.694319999999999      1.388700000000000
C       6.834990000000000     -8.483010000000000      0.354360000000000
C       7.732640000000000     -9.933230000000000      2.264490000000000
H       8.917100000000000     -8.802770000000001      0.844550000000000
H       8.030099999999999     -7.797400000000000      2.023820000000000
H       6.776590000000000     -9.832229999999999      2.815690000000000
H       7.690480000000000    -10.835089999999999      1.621760000000000
C       8.865380000000000    -10.135160000000001      3.272990000000000
H       7.058620000000000     -7.554020000000000     -0.212000000000000
H       9.833769999999999    -10.270130000000000      2.745890000000000
H       8.945060000000000     -9.271170000000000      3.964550000000000
H       8.666880000000001    -11.046640000000000      3.876950000000000
C       4.507680000000000    -11.214549999999999      0.900550000000000
C       3.763280000000000    -12.340270000000000      0.659590000000000
C       2.496040000000000    -11.911210000000001      0.348800000000000
C       2.522960000000000    -10.532510000000000      0.400900000000000
N       3.765340000000000    -10.108680000000000      0.750860000000000
C       1.326700000000000     -9.681270000000000      0.075850000000000
N       1.553680000000000     -8.780740000000000     -1.063810000000000
C       1.877210000000000     -9.336959999999999     -2.403950000000000
H       4.115100000000000    -13.358950000000000      0.704250000000000
H       5.546730000000000    -11.198169999999999      1.165710000000000
H       1.649650000000000    -12.533239999999999      0.095880000000000
H       0.439920000000000    -10.317130000000001     -0.129460000000000
H       1.051090000000000     -9.075659999999999      0.961800000000000
C       0.922860000000000    -10.484629999999999     -2.784100000000000
C       1.697850000000000     -8.200300000000000     -3.429480000000000
C       3.347010000000000     -9.813490000000000     -2.495080000000000
H      -0.129550000000000    -10.134700000000000     -2.737140000000000
H       1.133780000000000    -10.843760000000000     -3.813900000000000
H       1.042480000000000    -11.350140000000000     -2.101540000000000
H       2.380630000000000     -7.355390000000000     -3.201890000000000
H       1.928830000000000     -8.554670000000000     -4.457850000000000
H       0.654810000000000     -7.818120000000000     -3.415200000000000
H       4.042170000000000     -9.000570000000000     -2.192460000000000
H       3.548400000000000    -10.699529999999999     -1.872230000000000
H       3.595380000000000    -10.113740000000000     -3.534210000000000
Mg      5.815440000000000     -8.438269999999999      4.455760000000000
H       6.639940000000000    -10.750439999999999      5.477390000000000
C       4.499460000000000    -10.882759999999999      5.744980000000000
C       5.798910000000000    -10.112840000000000      5.823010000000000
C       4.181100000000000    -11.206810000000001      4.288560000000000
H       4.584670000000000    -11.813710000000000      6.345700000000000
H       3.689230000000000    -10.262219999999999      6.175970000000000
H       4.150680000000000    -10.266100000000000      3.704230000000000
H       4.975930000000000    -11.851110000000000      3.854590000000000
C       2.831720000000000    -11.904370000000000      4.182580000000000
H       6.003930000000000     -9.793430000000001      6.866730000000000
H       2.856070000000000    -12.865320000000001      4.736680000000000
H       2.030980000000000    -11.255620000000000      4.597830000000000
H       2.594960000000000    -12.110469999999999      3.123040000000000
C       6.850170000000000     -5.361880000000000      6.516590000000000
C       7.896470000000000     -6.116230000000000      6.023530000000000
C       7.598520000000000     -6.393010000000000      4.708380000000000
C       6.417340000000000     -5.836370000000000      4.465120000000000
N       5.953690000000000     -5.178900000000000      5.611920000000000
C       5.635010000000000     -5.987740000000000      3.189500000000000
N       4.660140000000000     -7.080030000000000      3.333910000000000
C       3.289150000000000     -6.805260000000000      3.832660000000000
H       8.758480000000000     -6.475400000000000      6.572690000000000
H       6.760920000000000     -4.981630000000000      7.520070000000000
H       8.181649999999999     -7.000700000000000      4.040780000000000
H       6.338860000000000     -6.317780000000000      2.400170000000000
H       5.231160000000000     -5.029020000000000      2.822400000000000
C       2.820080000000000     -5.356450000000000      3.566680000000000
C       2.323110000000000     -7.743830000000000      3.087030000000000
C       3.204360000000000     -7.111280000000000      5.329140000000000
H       2.877410000000000     -5.116620000000000      2.485690000000000
H       1.764710000000000     -5.222630000000000      3.886930000000000
H       3.435010000000000     -4.625170000000000      4.129460000000000
H       2.591890000000000     -8.806450000000000      3.225200000000000
H       1.277520000000000     -7.612410000000000      3.441070000000000
H       2.350600000000000     -7.529920000000000      2.001720000000000
H       3.473640000000000     -8.165720000000000      5.510620000000000
H       3.889520000000000     -6.473030000000000      5.910320000000000
H       2.172370000000000     -6.944410000000000      5.704130000000000
