110

Na      0.001060000000000      2.197090000000000      0.000670000000000
C       0.579850000000000     -1.043590000000000     -1.002710000000000
C      -0.579090000000000     -1.041700000000000      1.002680000000000
O      -0.000040000000000     -0.239920000000000     -0.000840000000000
C       1.185830000000000     -0.125790000000000     -2.057670000000000
C      -1.187660000000000     -0.123600000000000      2.055660000000000
H       1.396870000000000     -1.673650000000000     -0.583520000000000
H      -0.189010000000000     -1.678900000000000     -1.498460000000000
H      -1.395680000000000     -1.671810000000000      0.584440000000000
H       0.190690000000000     -1.674730000000000      1.499830000000000
H      -1.964200000000000      0.522980000000000      1.593080000000000
H      -1.655000000000000     -0.722380000000000      2.865190000000000
H      -0.400120000000000      0.524630000000000      2.496760000000000
H       1.960600000000000      0.524110000000000     -1.596560000000000
H       1.654230000000000     -0.724320000000000     -2.866710000000000
H       0.396210000000000      0.519800000000000     -2.499070000000000
Na    -10.897270000000001    -10.433059999999999     -9.277320000000000
C      -7.522330000000000     -9.657480000000000     -8.581230000000000
C      -8.879680000000000     -8.541079999999999     -7.084020000000000
O      -8.853420000000000     -9.426750000000000     -8.179670000000000
C      -7.537570000000000    -10.612120000000001     -9.766480000000000
C     -10.329800000000001     -8.317330000000000     -6.680520000000000
H      -7.035460000000000     -8.710430000000001     -8.908200000000001
H      -6.937540000000000    -10.134790000000001     -7.762200000000000
H      -8.341630000000000     -8.974050000000000     -6.210000000000000
H      -8.446450000000000     -7.554160000000000     -7.362400000000000
H     -10.798159999999999     -9.283950000000001     -6.396220000000000
H     -10.381860000000000     -7.622690000000000     -5.816190000000000
H     -10.896110000000000     -7.879450000000000     -7.530360000000000
H      -8.112090000000000    -10.165030000000000    -10.605980000000001
H      -6.500560000000000    -10.815110000000001    -10.106400000000001
H      -8.016370000000000    -11.571389999999999     -9.474399999999999
Mg     -0.600980000000000     -6.840500000000000     -2.730640000000000
H      -1.059290000000000     -5.118630000000000     -4.958930000000000
C       1.068110000000000     -4.999480000000000     -4.549000000000000
C      -0.373970000000000     -5.135260000000000     -4.082070000000000
C       1.467120000000000     -6.029610000000000     -5.617140000000000
H       1.198320000000000     -3.987290000000000     -4.984350000000000
H       1.714040000000000     -5.094880000000000     -3.657240000000000
H       1.312490000000000     -7.067750000000000     -5.253140000000000
H       0.849250000000000     -5.874590000000000     -6.527220000000000
C       2.934170000000000     -5.846030000000000     -6.006070000000000
H      -0.637740000000000     -4.280040000000000     -3.430450000000000
H       3.112320000000000     -4.810200000000000     -6.366720000000000
H       3.588860000000000     -6.033740000000000     -5.133440000000000
H       3.213320000000000     -6.556130000000000     -6.812240000000000
C      -1.463480000000000     -9.895759999999999     -7.887720000000000
C      -0.676750000000000     -8.779210000000001     -7.711190000000000
C      -1.512440000000000     -7.736310000000000     -7.357400000000000
C      -2.759760000000000     -8.207990000000001     -7.305360000000000
N      -2.808540000000000     -9.574430000000000     -7.634660000000000
C      -3.965810000000000     -7.393130000000000     -6.956150000000000
N      -3.821170000000000     -6.839960000000000     -5.606150000000000
C      -4.729290000000000     -5.740510000000000     -5.197480000000000
H       0.398730000000000     -8.736340000000000     -7.829370000000000
H      -1.112340000000000    -10.877720000000000     -8.168380000000001
H      -1.219340000000000     -6.718020000000000     -7.152170000000000
H      -4.053320000000000     -6.597640000000000     -7.718830000000000
H      -4.866100000000000     -8.041919999999999     -6.995000000000000
C      -6.186320000000000     -6.235470000000000     -5.239910000000000
C      -4.385740000000000     -5.338130000000000     -3.757220000000000
C      -4.578220000000000     -4.484810000000000     -6.090860000000000
H      -6.299340000000000     -7.139300000000000     -4.603040000000000
H      -6.883390000000000     -5.452380000000000     -4.872260000000000
H      -6.483730000000000     -6.495080000000000     -6.276470000000000
H      -3.343030000000000     -4.959210000000000     -3.698600000000000
H      -5.063590000000000     -4.531120000000000     -3.399070000000000
H      -4.489350000000000     -6.209110000000000     -3.079320000000000
H      -3.538320000000000     -4.095760000000000     -6.059760000000000
H      -4.855110000000000     -4.679470000000000     -7.145570000000000
H      -5.259750000000000     -3.678810000000000     -5.737050000000000
Mg     -1.999550000000000     -7.226470000000000     -4.635850000000000
H      -1.524620000000000     -8.956680000000000     -2.415890000000000
C      -1.504290000000000    -10.228700000000000     -4.173880000000000
C      -2.037380000000000     -9.031200000000000     -3.400950000000000
C       0.025950000000000    -10.238320000000000     -4.311540000000000
H      -1.804900000000000    -11.151160000000001     -3.635710000000000
H      -1.983850000000000    -10.218800000000000     -5.169680000000000
H       0.392030000000000     -9.311999999999999     -4.803490000000000
H       0.485530000000000    -10.312730000000000     -3.302910000000000
C       0.475160000000000    -11.451919999999999     -5.125420000000000
H      -3.119770000000000     -9.161830000000000     -3.209380000000000
H       0.111790000000000    -12.390219999999999     -4.653900000000000
H       0.071480000000000    -11.394390000000000     -6.154530000000000
H       1.582840000000000    -11.489929999999999     -5.185390000000000
C       3.629630000000000     -6.724310000000000     -2.463730000000000
C       2.937620000000000     -7.891290000000000     -2.700550000000000
C       1.847990000000000     -7.905800000000000     -1.849800000000000
C       1.869880000000000     -6.779810000000000     -1.133920000000000
N       2.977150000000000     -5.978850000000000     -1.466360000000000
C       0.858810000000000     -6.410170000000000     -0.093920000000000
N      -0.473400000000000     -6.324210000000000     -0.699360000000000
C      -1.652560000000000     -6.309730000000000      0.200790000000000
H       3.205640000000000     -8.651619999999999     -3.423340000000000
H       4.532600000000000     -6.412160000000000     -2.967240000000000
H       1.102470000000000     -8.682390000000000     -1.772130000000000
H       0.903410000000000     -7.185090000000000      0.693300000000000
H       1.129660000000000     -5.425580000000000      0.341660000000000
C      -1.583880000000000     -5.075100000000000      1.117860000000000
C      -2.918460000000000     -6.214090000000000     -0.660890000000000
C      -1.757990000000000     -7.593690000000000      1.059960000000000
H      -1.505960000000000     -4.153480000000000      0.502900000000000
H      -2.491300000000000     -5.001900000000000      1.754770000000000
H      -0.701420000000000     -5.126600000000000      1.789050000000000
H      -3.004930000000000     -7.102330000000000     -1.322420000000000
H      -3.829630000000000     -6.172600000000000     -0.022860000000000
H      -2.888640000000000     -5.300790000000000     -1.288710000000000
H      -1.830590000000000     -8.497809999999999      0.418870000000000
H      -0.899970000000000     -7.713490000000000      1.750150000000000
H      -2.666320000000000     -7.551280000000000      1.702170000000000
