155

Na     -0.372760000000000     -0.049530000000000      0.033220000000000
C      -0.274400000000000      1.430350000000000     -2.735160000000000
C      -2.511740000000000      0.884720000000000     -2.260610000000000
O      -1.154020000000000      0.624110000000000     -1.978430000000000
C       0.031360000000000      2.743120000000000     -2.019630000000000
C      -3.003920000000000     -0.034460000000000     -3.370890000000000
H       0.677990000000000      0.871270000000000     -2.842310000000000
H      -0.643240000000000      1.612840000000000     -3.767440000000000
H      -3.095790000000000      0.667900000000000     -1.339730000000000
H      -2.706540000000000      1.952540000000000     -2.504790000000000
H      -2.848860000000000     -1.096270000000000     -3.082740000000000
H      -4.085990000000000      0.137790000000000     -3.544950000000000
H      -2.451340000000000      0.168430000000000     -4.311000000000000
H       0.445160000000000      2.546000000000000     -1.009100000000000
H       0.783730000000000      3.312360000000000     -2.605090000000000
H      -0.884460000000000      3.360650000000000     -1.922180000000000
C      -0.426400000000000     -1.738900000000000      2.747150000000000
C      -1.810160000000000     -2.735640000000000      1.142210000000000
O      -1.133440000000000     -1.565390000000000      1.538430000000000
C       0.963140000000000     -2.326580000000000      2.507410000000000
C      -2.405510000000000     -2.497400000000000     -0.241730000000000
H      -0.288620000000000     -0.729190000000000      3.188740000000000
H      -0.999590000000000     -2.330180000000000      3.494490000000000
H      -1.118250000000000     -3.600180000000000      1.064160000000000
H      -2.638660000000000     -2.960990000000000      1.847710000000000
H      -1.601390000000000     -2.269720000000000     -0.974310000000000
H      -2.954260000000000     -3.399240000000000     -0.584290000000000
H      -3.108710000000000     -1.638230000000000     -0.211070000000000
H       1.521230000000000     -1.707490000000000      1.775100000000000
H       1.527910000000000     -2.339380000000000      3.463050000000000
H       0.895440000000000     -3.365350000000000      2.126870000000000
C      -0.958360000000000      2.115240000000000      2.262100000000000
C       1.357160000000000      2.231460000000000      1.878450000000000
O       0.153190000000000      1.550340000000000      1.596690000000000
C      -1.637900000000000      3.164400000000000      1.388410000000000
C       2.063660000000000      1.596640000000000      3.070310000000000
H      -1.687630000000000      1.298530000000000      2.450890000000000
H      -0.696470000000000      2.534670000000000      3.259070000000000
H       2.014240000000000      2.132210000000000      0.989560000000000
H       1.211340000000000      3.323980000000000      2.031880000000000
H       2.244890000000000      0.517920000000000      2.878670000000000
H       3.039540000000000      2.099380000000000      3.233600000000000
H       1.446640000000000      1.701430000000000      3.986060000000000
H      -1.951340000000000      2.714330000000000      0.422360000000000
H      -2.538620000000000      3.552090000000000      1.909280000000000
H      -0.948540000000000      4.010440000000000      1.189060000000000
C       3.000520000000000     -0.448950000000000     -0.545760000000000
C       1.547120000000000     -1.771480000000000     -1.834250000000000
O       1.657310000000000     -0.769620000000000     -0.842530000000000
C       3.495700000000000      0.688460000000000     -1.432740000000000
C       1.512250000000000     -3.159530000000000     -1.204780000000000
H       3.037030000000000     -0.107740000000000      0.509860000000000
H       3.678320000000000     -1.328880000000000     -0.607920000000000
H       0.585930000000000     -1.612140000000000     -2.368290000000000
H       2.345200000000000     -1.703400000000000     -2.606420000000000
H       0.676320000000000     -3.228370000000000     -0.481070000000000
H       1.359660000000000     -3.922360000000000     -1.996690000000000
H       2.463500000000000     -3.374230000000000     -0.677110000000000
H       2.839430000000000      1.577080000000000     -1.322350000000000
H       4.527310000000000      0.968070000000000     -1.133150000000000
H       3.504060000000000      0.376580000000000     -2.497030000000000
Na      5.765120000000000    -17.976420000000001      7.064450000000000
C       2.545600000000000    -17.176380000000002      5.873330000000000
C       3.989190000000000    -15.446030000000000      5.371200000000000
O       3.873170000000000    -16.714420000000000      5.973770000000000
C       2.464120000000000    -18.547979999999999      6.528050000000000
C       5.433230000000000    -14.983190000000000      5.499140000000000
H       1.846960000000000    -16.495819999999998      6.411200000000000
H       2.241800000000000    -17.285370000000000      4.807170000000000
H       3.741230000000000    -15.499079999999999      4.287270000000000
H       3.341460000000000    -14.700390000000001      5.886290000000000
H       6.108560000000000    -15.704170000000000      4.990380000000000
H       5.555800000000000    -13.983160000000000      5.033100000000000
H       5.717630000000000    -14.919729999999999      6.571400000000000
H       2.759710000000000    -18.476009999999999      7.596750000000000
H       1.427330000000000    -18.939609999999998      6.466010000000000
H       3.148860000000000    -19.255340000000000      6.012790000000000
Mg     -2.316490000000000    -11.929480000000000      2.111420000000000
H      -4.682670000000000    -13.435829999999999      2.410760000000000
C      -4.224900000000000    -13.243620000000000      0.275430000000000
C      -4.315560000000000    -12.679810000000000      1.686670000000000
C      -3.313910000000000    -14.466020000000000      0.273690000000000
H      -5.227020000000000    -13.520009999999999     -0.114210000000000
H      -3.798670000000000    -12.454630000000000     -0.378970000000000
H      -2.381720000000000    -14.220789999999999      0.798710000000000
H      -3.801640000000000    -15.293369999999999      0.830360000000000
C      -2.967710000000000    -14.907050000000000     -1.143380000000000
H      -5.004960000000000    -11.807320000000001      1.688960000000000
H      -3.888330000000000    -15.167740000000000     -1.704220000000000
H      -2.430250000000000    -14.091710000000001     -1.676580000000000
H      -2.300670000000000    -15.793469999999999     -1.100650000000000
C      -0.114090000000000     -9.812659999999999     -2.299330000000000
C      -0.118340000000000    -11.083520000000000     -1.769420000000000
C      -1.088560000000000    -11.110799999999999     -0.784250000000000
C      -1.652030000000000     -9.907819999999999     -0.712390000000000
N      -1.092210000000000     -9.029489999999999     -1.663510000000000
C      -2.740560000000000     -9.517700000000000      0.246060000000000
N      -2.182400000000000     -9.341519999999999      1.599890000000000
C      -2.166710000000000     -7.953140000000000      2.112230000000000
H       0.527760000000000    -11.898339999999999     -2.072030000000000
H       0.539440000000000     -9.461440000000000     -3.085890000000000
H      -1.359010000000000    -11.955380000000000     -0.179390000000000
H      -3.523130000000000    -10.298349999999999      0.260680000000000
H      -3.252130000000000     -8.615000000000000     -0.128120000000000
C      -3.604970000000000     -7.527320000000000      2.454820000000000
C      -1.321890000000000     -7.896500000000000      3.400070000000000
C      -1.498330000000000     -6.979460000000000      1.115560000000000
H      -4.043520000000000     -8.236879999999999      3.191110000000000
H      -3.621190000000000     -6.509480000000000      2.894490000000000
H      -4.255740000000000     -7.532860000000000      1.558290000000000
H      -0.287310000000000     -8.235860000000001      3.199180000000000
H      -1.271110000000000     -6.860820000000000      3.797040000000000
H      -1.742650000000000     -8.510910000000001      4.208880000000000
H      -0.463330000000000     -7.317450000000000      0.894050000000000
H      -2.042900000000000     -6.887240000000000      0.158710000000000
H      -1.449670000000000     -5.962530000000000      1.555460000000000
Mg      0.192410000000000    -10.215500000000000      1.825800000000000
H       2.705220000000000    -10.014390000000001      0.657590000000000
C       2.529020000000000     -8.152920000000000      1.805620000000000
C       1.932110000000000     -9.278010000000000      0.955410000000000
C       3.278520000000000     -8.666700000000001      3.039730000000000
H       3.266300000000000     -7.619530000000000      1.169250000000000
H       1.742890000000000     -7.421980000000000      2.097700000000000
H       4.025450000000000     -9.423760000000000      2.716730000000000
H       3.821790000000000     -7.817250000000000      3.505450000000000
C       2.363780000000000     -9.262010000000000      4.101400000000000
H       1.519330000000000     -8.818590000000000      0.030790000000000
H       1.668970000000000     -8.490640000000001      4.492780000000000
H       1.783170000000000    -10.096439999999999      3.682460000000000
H       2.976020000000000     -9.645390000000001      4.944440000000000
C      -3.460090000000000    -12.930030000000000      5.994780000000000
C      -3.999810000000000    -11.740539999999999      5.559660000000000
C      -2.999780000000000    -11.062370000000000      4.894810000000000
C      -1.889890000000000    -11.804270000000001      4.914620000000000
N      -2.118480000000000    -13.014630000000000      5.609340000000000
C      -0.554220000000000    -11.424390000000001      4.337850000000000
N      -0.389540000000000    -11.888859999999999      2.946010000000000
C       0.459470000000000    -13.094090000000000      2.728000000000000
H      -5.015230000000000    -11.407380000000000      5.717460000000000
H      -3.986690000000000    -13.690930000000000      6.553750000000000
H      -3.124620000000000    -10.093489999999999      4.441400000000000
H       0.254730000000000    -11.723129999999999      5.025460000000000
H      -0.494610000000000    -10.324510000000000      4.325360000000000
C      -0.158700000000000    -14.316030000000000      3.430100000000000
C       0.571290000000000    -13.395070000000000      1.222760000000000
C       1.909440000000000    -12.868960000000000      3.214170000000000
H      -1.197340000000000    -14.482740000000000      3.067820000000000
H       0.436870000000000    -15.231500000000000      3.232100000000000
H      -0.178840000000000    -14.171110000000001      4.526910000000000
H       1.008930000000000    -12.533750000000000      0.675530000000000
H       1.219640000000000    -14.281560000000001      1.047250000000000
H      -0.396670000000000    -13.635949999999999      0.780050000000000
H       2.367800000000000    -12.019069999999999      2.666300000000000
H       1.988870000000000    -12.682480000000000      4.300170000000000
H       2.525430000000000    -13.768610000000001      3.005640000000000
