125

Na      0.124350000000000      1.984810000000000      0.917100000000000
C      -0.353670000000000     -0.425880000000000     -1.486990000000000
C       0.226830000000000     -1.428660000000000      0.517960000000000
O      -0.022540000000000     -0.205310000000000     -0.135050000000000
C      -0.606520000000000      0.926040000000000     -2.143100000000000
C       0.582330000000000     -1.132960000000000      1.969740000000000
H       0.485910000000000     -0.919360000000000     -2.027460000000000
H      -1.284520000000000     -1.030940000000000     -1.574200000000000
H      -0.679510000000000     -2.075890000000000      0.509980000000000
H       1.090300000000000     -1.955180000000000      0.053870000000000
H      -0.257880000000000     -0.601100000000000      2.465940000000000
H       0.783680000000000     -2.077490000000000      2.517450000000000
H       1.487990000000000     -0.490660000000000      2.015690000000000
H       0.305510000000000      1.557510000000000     -2.076620000000000
H      -0.873100000000000      0.791970000000000     -3.212340000000000
H      -1.440850000000000      1.448580000000000     -1.627560000000000
Na     15.118470000000000    -15.071350000000001      1.866360000000000
C      11.942209999999999    -13.904050000000000      0.868560000000000
C      12.520429999999999    -12.904280000000000      2.869300000000000
O      12.930870000000001    -13.806920000000000      1.867730000000000
C      12.425100000000000    -14.884910000000000     -0.190640000000000
C      13.616080000000000    -12.831490000000001      3.922920000000000
H      10.988540000000000    -14.295109999999999      1.290540000000000
H      11.777740000000000    -12.918979999999999      0.375520000000000
H      12.377250000000000    -11.882429999999999      2.449710000000000
H      11.587420000000000    -13.256890000000000      3.365400000000000
H      14.563120000000000    -12.479030000000000      3.461080000000000
H      13.326940000000000    -12.128030000000001      4.729180000000000
H      13.783390000000001    -13.836570000000000      4.365750000000000
H      12.598250000000000    -15.882540000000001      0.267030000000000
H      11.665590000000000    -14.983630000000000     -0.994140000000000
H      13.376989999999999    -14.524010000000001     -0.636070000000000
Mg      5.937160000000000     -8.098030000000000      4.722290000000000
C       7.664560000000000     -6.103800000000000      5.466710000000000
C       9.777380000000001     -5.358740000000000      4.811530000000000
O       8.577640000000001     -5.972160000000000      4.394250000000000
C       6.980750000000000     -4.807760000000000      5.838840000000000
C      10.914680000000001     -5.818850000000000      3.906930000000000
H       9.000850000000000     -8.229210000000000      5.136840000000000
H       8.078310000000000     -6.636020000000000      6.349990000000000
H       9.670540000000001     -4.257840000000000      4.719520000000000
H      10.061140000000000     -5.625610000000000      5.854300000000000
H      10.687440000000000     -5.576490000000000      2.847020000000000
H      11.854760000000001     -5.306150000000000      4.200270000000000
H      11.066970000000000     -6.914870000000000      3.998900000000000
H       6.549210000000000     -4.340100000000000      4.935520000000000
H       6.169760000000000     -5.035400000000000      6.561000000000000
H       7.710560000000000     -4.118610000000000      6.306210000000000
H       4.703730000000000     -8.936310000000001      6.991200000000000
C       2.951450000000000     -8.124560000000001      5.992250000000000
C       4.445850000000000     -8.070100000000000      6.350820000000000
C       2.580780000000000     -9.354480000000001      5.155330000000000
H       2.365280000000000     -8.139960000000000      6.937360000000000
H       2.678300000000000     -7.206670000000000      5.447600000000000
H       3.155850000000000     -9.345380000000000      4.208090000000000
H       2.826840000000000    -10.273630000000001      5.723530000000000
C       1.087260000000000     -9.398730000000000      4.826150000000000
H       4.629570000000000     -7.138720000000000      6.927530000000000
H       0.486020000000000     -9.439500000000001      5.759260000000000
H       0.780820000000000     -8.511509999999999      4.234480000000000
H       0.865520000000000    -10.308820000000001      4.228210000000000
C       5.896320000000000    -11.028449999999999      4.827500000000000
C       6.532890000000000    -12.237069999999999      4.711300000000000
C       7.831490000000000    -11.962020000000001      4.358400000000000
C       7.937530000000000    -10.588070000000000      4.285810000000000
N       6.737210000000000    -10.017620000000001      4.567630000000000
C       9.228740000000000     -9.886150000000001      3.967460000000000
N       9.683350000000001     -8.999320000000001      5.048270000000000
C       9.987740000000001     -9.554390000000000      6.393350000000000
H       6.091610000000000    -13.208140000000000      4.871800000000000
H       4.867850000000000    -10.887969999999999      5.097110000000000
H       8.618869999999999    -12.682100000000000      4.188750000000000
H      10.026630000000001    -10.623120000000000      3.737010000000000
H       9.107830000000000     -9.289800000000000      3.041510000000000
C      10.871409999999999    -10.812360000000000      6.298050000000000
C      10.766550000000001     -8.475270000000000      7.171050000000000
C       8.702170000000001     -9.865520000000000      7.197210000000000
H      11.801720000000000    -10.581420000000000      5.738230000000000
H      11.145670000000001    -11.175290000000000      7.311470000000000
H      10.340650000000000    -11.638830000000000      5.783720000000000
H      10.158480000000001     -7.552880000000000      7.277380000000000
H      11.023239999999999     -8.831180000000000      8.192769999999999
H      11.708150000000000     -8.212199999999999      6.643410000000000
H       8.043519999999999     -8.971330000000000      7.244760000000000
H       8.126960000000000    -10.704929999999999      6.775220000000000
H       8.955019999999999    -10.166029999999999      8.235170000000000
Mg      3.353080000000000     -8.020180000000000      2.268030000000000
H       1.885240000000000    -10.195510000000001      1.839770000000000
C       3.599610000000000    -10.559150000000001      0.575100000000000
C       2.519920000000000     -9.646440000000000      1.112430000000000
C       4.543500000000000    -10.959030000000000      1.705000000000000
H       3.130950000000000    -11.456870000000000      0.117650000000000
H       4.164420000000000    -10.021200000000000     -0.211590000000000
H       4.957760000000000    -10.045030000000001      2.174330000000000
H       3.990830000000000    -11.522480000000000      2.487490000000000
C       5.688120000000000    -11.806310000000000      1.165860000000000
H       1.873330000000000     -9.276059999999999      0.288940000000000
H       5.291450000000000    -12.741989999999999      0.720650000000000
H       6.255470000000000    -11.239680000000000      0.396730000000000
H       6.382610000000000    -12.068330000000000      1.984510000000000
C       1.804410000000000     -4.792270000000000      0.874480000000000
C       1.049210000000000     -5.434750000000000      1.835070000000000
C       1.912350000000000     -5.779790000000000      2.850350000000000
C       3.118050000000000     -5.367370000000000      2.475560000000000
N       3.040330000000000     -4.735790000000000      1.227630000000000
C       4.396940000000000     -5.643110000000000      3.217870000000000
N       5.050810000000000     -6.833470000000000      2.651950000000000
C       6.031290000000000     -6.700300000000000      1.545160000000000
H      -0.004840000000000     -5.678840000000000      1.781370000000000
H       1.439930000000000     -4.400450000000000     -0.059490000000000
H       1.660570000000000     -6.336590000000000      3.734450000000000
H       4.130360000000000     -5.914990000000000      4.258240000000000
H       5.032880000000000     -4.747080000000000      3.316020000000000
C       6.729610000000000     -5.321720000000000      1.509040000000000
C       7.125210000000000     -7.762570000000000      1.758130000000000
C       5.347660000000000     -6.970460000000000      0.203560000000000
H       7.229070000000000     -5.108530000000000      2.475690000000000
H       7.506260000000000     -5.298050000000000      0.714970000000000
H       6.005800000000000     -4.510040000000000      1.292500000000000
H       6.706060000000000     -8.783930000000000      1.797900000000000
H       7.876790000000000     -7.739070000000000      0.939280000000000
H       7.649900000000000     -7.578510000000000      2.714820000000000
H       4.907930000000000     -7.982330000000000      0.205510000000000
H       4.543570000000000     -6.242800000000000      0.007440000000000
H       6.081340000000000     -6.909610000000000     -0.628000000000000
