110

Na      0.001030000000000      2.201190000000000      0.000680000000000
C       0.580010000000000     -1.041050000000000     -1.001340000000000
C      -0.579540000000000     -1.041080000000000      1.003040000000000
O       0.000140000000000     -0.237980000000000      0.000870000000000
C       1.185900000000000     -0.123620000000000     -2.056520000000000
C      -1.188490000000000     -0.124440000000000      2.056590000000000
H       1.397040000000000     -1.671160000000000     -0.582270000000000
H      -0.189030000000000     -1.676020000000000     -1.497110000000000
H      -1.395930000000000     -1.670690000000000      0.583360000000000
H       0.189960000000000     -1.674610000000000      1.500130000000000
H      -1.964930000000000      0.522300000000000      1.594110000000000
H      -1.655670000000000     -0.724410000000000      2.865340000000000
H      -0.400940000000000      0.523530000000000      2.498070000000000
H       1.960950000000000      0.525990000000000     -1.595740000000000
H       1.654130000000000     -0.722680000000000     -2.865300000000000
H       0.396180000000000      0.521510000000000     -2.498280000000000
Na    -10.900029999999999    -11.387810000000000      8.191739999999999
C      -8.596349999999999     -8.999150000000000      7.000060000000000
C      -7.819650000000000    -11.114450000000000      6.497920000000000
O      -8.860120000000000    -10.379840000000000      7.100550000000000
C      -9.743359999999999     -8.242649999999999      7.654730000000000
C      -8.140680000000000    -12.596470000000000      6.625800000000000
H      -7.657620000000000     -8.734420000000000      7.537900000000000
H      -8.538819999999999     -8.681600000000000      5.933890000000000
H      -7.741670000000000    -10.873139999999999      5.414000000000000
H      -6.850030000000000    -10.926259999999999      7.012980000000000
H      -9.102710000000000    -12.820900000000000      6.117030000000000
H      -7.335840000000000    -13.202480000000000      6.159690000000000
H      -8.227840000000000    -12.874560000000001      7.698040000000000
H      -9.828840000000000     -8.534540000000000      8.723459999999999
H      -9.563990000000000     -7.148980000000000      7.592600000000000
H     -10.698330000000000     -8.481900000000000      7.139480000000000
Mg     -1.622960000000000     -7.411040000000000      3.237420000000000
H      -1.742730000000000     -4.607220000000000      3.536640000000000
C      -1.804730000000000     -5.102040000000000      1.402120000000000
C      -1.271530000000000     -5.304140000000000      2.813440000000000
C      -3.318950000000000     -5.278410000000000      1.400310000000000
H      -1.541940000000000     -4.097780000000000      1.011560000000000
H      -1.334970000000000     -5.866220000000000      0.748290000000000
H      -3.573460000000000     -6.208240000000000      1.925350000000000
H      -3.791080000000000     -4.441810000000000      1.956660000000000
C      -3.873810000000000     -5.357550000000000     -0.016780000000000
H      -0.171270000000000     -5.143260000000000      2.815640000000000
H      -3.638980000000000     -4.429890000000000     -0.577480000000000
H      -3.436590000000000     -6.230840000000000     -0.549860000000000
H      -4.975030000000000     -5.492000000000000      0.025890000000000
C      -0.889290000000000    -10.376950000000001     -1.172940000000000
C      -1.987730000000000     -9.738210000000000     -0.642560000000000
C      -1.526170000000000     -8.884520000000000      0.342720000000000
C      -0.202620000000000     -8.997719999999999      0.414220000000000
N       0.278090000000000     -9.921360000000000     -0.537290000000000
C       0.679450000000000     -8.249980000000001      1.372700000000000
N       0.552870000000000     -8.821339999999999      2.726630000000000
C       1.747380000000000     -9.529220000000000      3.239040000000000
H      -3.016480000000000     -9.890450000000000     -0.944940000000000
H      -0.911970000000000    -11.118330000000000     -1.959720000000000
H      -2.122280000000000     -8.228300000000001      0.947910000000000
H       0.394730000000000     -7.181950000000000      1.387180000000000
H       1.717020000000000     -8.258100000000001      0.998580000000000
C       2.835190000000000     -8.496440000000000      3.581730000000000
C       1.373890000000000    -10.289099999999999      4.526870000000000
C       2.256260000000000    -10.595039999999999      2.242040000000000
H       2.439960000000000     -7.761860000000000      4.317960000000000
H       3.724660000000000     -8.991180000000000      4.021700000000000
H       3.156000000000000     -7.930200000000000      2.685200000000000
H       0.562710000000000    -11.015409999999999      4.326040000000000
H       2.245330000000000    -10.850949999999999      4.923860000000000
H       1.052320000000000     -9.617459999999999      5.335700000000000
H       1.445320000000000    -11.321690000000000      2.020700000000000
H       2.606920000000000    -10.168839999999999      1.284990000000000
H       3.114240000000000    -11.147290000000000      2.679230000000000
Mg     -1.391270000000000    -10.442030000000001      2.954010000000000
H      -2.475310000000000    -12.718170000000001      1.784790000000000
C      -0.775070000000000    -13.496710000000000      2.932340000000000
C      -1.450970000000000    -12.416960000000000      2.082490000000000
C      -1.594120000000000    -13.888859999999999      4.166830000000000
H      -0.682070000000000    -14.401920000000000      2.295930000000000
H       0.251050000000000    -13.181340000000001      3.224110000000000
H      -2.623280000000000    -14.157400000000001      3.844300000000000
H      -1.129740000000000    -14.783970000000000      4.632460000000000
C      -1.651810000000000    -12.798859999999999      5.228360000000000
H      -0.846860000000000    -12.289120000000000      1.157760000000000
H      -0.636190000000000    -12.582710000000001      5.619210000000000
H      -2.084280000000000    -11.878850000000000      4.809520000000000
H      -2.289520000000000    -13.137290000000000      6.071740000000000
C      -1.916450000000000     -5.920380000000000      7.121630000000000
C      -0.616670000000000     -6.047920000000000      6.686270000000000
C      -0.529420000000000     -7.253030000000000      6.021350000000000
C      -1.727080000000000     -7.843060000000000      6.041450000000000
N      -2.660760000000000     -7.040070000000000      6.736130000000000
C      -2.065530000000000     -9.189970000000001      5.464740000000000
N      -2.550040000000000     -9.100690000000000      4.072940000000000
C      -4.018260000000000     -9.233689999999999      3.854880000000000
H       0.179800000000000     -5.335250000000000      6.844010000000000
H      -2.311900000000000     -5.083960000000000      7.680740000000000
H       0.371800000000000     -7.629540000000000      5.567900000000000
H      -2.728180000000000     -9.741840000000000      6.152400000000000
H      -1.142450000000000     -9.790920000000000      5.452060000000000
C      -4.767620000000000     -8.087479999999999      4.556900000000000
C      -4.334460000000000     -9.179970000000001      2.349620000000000
C      -4.548240000000000    -10.601990000000001      4.341130000000000
H      -4.392530000000000     -7.104610000000000      4.194870000000000
H      -5.858170000000000     -8.145490000000001      4.358550000000000
H      -4.632330000000000     -8.142659999999999      5.653760000000000
H      -3.807110000000000     -9.989610000000001      1.802550000000000
H      -5.426290000000000     -9.298370000000000      2.173780000000000
H      -4.058900000000000     -8.221050000000000      1.907220000000000
H      -4.041370000000000    -11.423980000000000      3.793440000000000
H      -4.426580000000000    -10.763809999999999      5.427190000000000
H      -5.635340000000000    -10.685720000000000      4.132480000000000
