200

Na      0.150910000000000      0.322470000000000      0.122570000000000
C       2.500680000000000     -1.695270000000000      0.669030000000000
C       3.207460000000000      0.460920000000000      1.282880000000000
O       2.285740000000000     -0.305060000000000      0.538210000000000
C       1.724390000000000     -2.267590000000000      1.851230000000000
C       4.413540000000000      0.812070000000000      0.422050000000000
H       2.119780000000000     -2.177860000000000     -0.254690000000000
H       3.578950000000000     -1.957360000000000      0.732380000000000
H       2.700350000000000      1.404510000000000      1.580470000000000
H       3.518320000000000     -0.033840000000000      2.229820000000000
H       4.083940000000000      1.351670000000000     -0.491560000000000
H       5.104720000000000      1.462710000000000      0.996260000000000
H       4.952260000000000     -0.109910000000000      0.121790000000000
H       0.643070000000000     -2.040290000000000      1.750340000000000
H       1.853570000000000     -3.369160000000000      1.873010000000000
H       2.096120000000000     -1.846550000000000      2.807350000000000
C      -2.178500000000000      2.384340000000000     -0.642800000000000
C      -0.096170000000000      3.225550000000000     -1.305350000000000
O      -0.778400000000000      2.302990000000000     -0.487770000000000
C      -2.664530000000000      1.529130000000000     -1.811290000000000
C       1.399770000000000      2.951910000000000     -1.187920000000000
H      -2.631470000000000      1.971190000000000      0.283260000000000
H      -2.537960000000000      3.433710000000000     -0.723930000000000
H      -0.375520000000000      3.110520000000000     -2.374560000000000
H      -0.291440000000000      4.264160000000000     -0.961830000000000
H       1.631050000000000      1.917880000000000     -1.523130000000000
H       1.971010000000000      3.666190000000000     -1.816560000000000
H       1.725290000000000      3.062230000000000     -0.131770000000000
H      -2.310670000000000      0.483970000000000     -1.695560000000000
H      -3.774420000000000      1.527620000000000     -1.830850000000000
H      -2.297800000000000      1.930600000000000     -2.777040000000000
C      -1.492830000000000      0.640970000000000      2.808200000000000
C      -2.318350000000000     -1.319530000000000      1.811240000000000
O      -1.472410000000000     -0.198080000000000      1.671110000000000
C      -0.394660000000000      0.247810000000000      3.790280000000000
C      -3.702670000000000     -1.015630000000000      1.251540000000000
H      -1.293900000000000      1.678560000000000      2.464270000000000
H      -2.486470000000000      0.664930000000000      3.309060000000000
H      -1.876600000000000     -2.148910000000000      1.220710000000000
H      -2.380180000000000     -1.688120000000000      2.859610000000000
H      -3.624910000000000     -0.696400000000000      0.190790000000000
H      -4.332910000000000     -1.927490000000000      1.305580000000000
H      -4.186970000000000     -0.207210000000000      1.836650000000000
H       0.597350000000000      0.290520000000000      3.292220000000000
H      -0.394260000000000      0.954390000000000      4.646750000000000
H      -0.565410000000000     -0.779150000000000      4.173790000000000
C      -1.037920000000000     -2.263540000000000     -1.834170000000000
C       0.804150000000000     -1.070650000000000     -2.671770000000000
O      -0.109740000000000     -1.224020000000000     -1.603770000000000
C      -0.517050000000000     -3.586400000000000     -1.283040000000000
C       0.276280000000000     -0.077040000000000     -3.699960000000000
H      -1.971680000000000     -2.004230000000000     -1.292940000000000
H      -1.320830000000000     -2.360640000000000     -2.905860000000000
H       1.748090000000000     -0.662290000000000     -2.251570000000000
H       1.072190000000000     -2.037510000000000     -3.152850000000000
H       0.068210000000000      0.897030000000000     -3.214850000000000
H       1.037780000000000      0.076130000000000     -4.493000000000000
H      -0.656990000000000     -0.453910000000000     -4.165290000000000
H      -0.286110000000000     -3.488450000000000     -0.201580000000000
H      -1.291270000000000     -4.371080000000000     -1.413060000000000
H       0.401720000000000     -3.896960000000000     -1.821180000000000
Na      1.679360000000000     -9.403910000000000      4.683010000000000
C       0.910050000000000    -12.175030000000000      6.017620000000000
C      -0.645620000000000    -11.685520000000000      4.327430000000000
O       0.333170000000000    -11.172990000000000      5.205850000000000
C       2.124660000000000    -12.800390000000000      5.338610000000000
C      -2.024310000000000    -11.578410000000000      4.965000000000000
H       1.252780000000000    -11.687790000000000      6.954030000000000
H       0.176590000000000    -12.952940000000000      6.324080000000000
H      -0.631300000000000    -11.065429999999999      3.404870000000000
H      -0.435430000000000    -12.728680000000001      3.999770000000000
H      -2.234520000000000    -10.521860000000000      5.237120000000000
H      -2.795570000000000    -11.928150000000000      4.248260000000000
H      -2.072030000000000    -12.203450000000000      5.880380000000000
H       2.866250000000000    -12.016280000000000      5.080440000000000
H       2.600170000000000    -13.526270000000000      6.031020000000000
H       1.825530000000000    -13.334190000000000      4.413580000000000
C       2.367650000000000     -6.466030000000000      3.513230000000000
C       0.066260000000000     -6.691790000000000      3.861610000000000
O       1.295830000000000     -7.363480000000000      3.707610000000000
C       2.943920000000000     -5.989040000000000      4.844530000000000
C      -0.998250000000000     -7.718050000000000      4.233390000000000
H       3.167690000000000     -7.022590000000000      2.980540000000000
H       2.094430000000000     -5.611470000000000      2.856620000000000
H       0.108770000000000     -5.942160000000000      4.680880000000000
H      -0.231120000000000     -6.206890000000000      2.906540000000000
H      -0.731920000000000     -8.223839999999999      5.186420000000000
H      -1.981090000000000     -7.218800000000000      4.357010000000000
H      -1.082490000000000     -8.486050000000001      3.435500000000000
H       3.231110000000000     -6.859090000000000      5.470370000000000
H       3.846980000000000     -5.371540000000000      4.656700000000000
H       2.207470000000000     -5.372740000000000      5.398110000000000
C       3.522820000000000    -10.004510000000000      2.161320000000000
C       4.986240000000000    -10.070360000000001      3.994840000000000
O       3.676340000000000     -9.788080000000001      3.549610000000000
C       3.035850000000000    -11.423270000000000      1.890440000000000
C       5.836170000000000     -8.806690000000000      3.970070000000000
H       2.752170000000000     -9.294729999999999      1.792040000000000
H       4.448920000000000     -9.784400000000000      1.583480000000000
H       4.916480000000000    -10.427659999999999      5.043390000000000
H       5.473540000000000    -10.891850000000000      3.422260000000000
H       5.358650000000000     -8.015169999999999      4.585170000000000
H       6.841710000000000     -9.026710000000000      4.384770000000000
H       5.947170000000000     -8.437430000000001      2.929800000000000
H       2.079770000000000    -11.606120000000001      2.425460000000000
H       2.867780000000000    -11.556220000000000      0.801130000000000
H       3.789780000000000    -12.163370000000000      2.229670000000000
C       3.558850000000000     -9.028890000000001      7.600410000000000
C       1.232720000000000     -8.804110000000000      7.814290000000000
O       2.311080000000000     -9.068870000000000      6.938450000000000
C       3.939130000000000    -10.412649999999999      8.113930000000000
C       0.917260000000000     -7.313800000000000      7.845180000000000
H       4.322000000000000     -8.707459999999999      6.861070000000000
H       3.590740000000000     -8.277609999999999      8.421329999999999
H       0.340830000000000     -9.339940000000000      7.425070000000000
H       1.403810000000000     -9.195119999999999      8.842530000000000
H       0.695240000000000     -6.952290000000000      6.821570000000000
H       0.030570000000000     -7.135110000000000      8.486820000000000
H       1.775870000000000     -6.741370000000000      8.251519999999999
H       3.951560000000000    -11.141050000000000      7.276380000000000
H       4.950220000000000    -10.373570000000001      8.570209999999999
H       3.213170000000000    -10.755459999999999      8.879460000000000
Mg     -7.622960000000000     -9.533840000000000     10.265680000000000
H      -4.880210000000000    -10.316739999999999     10.291190000000000
C      -5.945710000000000    -11.944120000000000      9.329029999999999
C      -5.863910000000000    -10.832020000000000     10.365180000000001
C      -5.644530000000000    -11.472519999999999      7.897960000000000
H      -5.202130000000000    -12.723250000000000      9.595900000000000
H      -6.960570000000000    -12.378090000000000      9.389659999999999
H      -6.331130000000000    -10.654760000000000      7.591470000000000
H      -4.599130000000000    -11.100660000000000      7.845050000000000
C      -5.780310000000000    -12.637490000000000      6.917520000000000
H      -5.943980000000000    -11.262810000000000     11.381869999999999
H      -5.106370000000000    -13.470850000000000      7.210770000000000
H      -6.822310000000000    -13.011780000000000      6.908730000000000
H      -5.515960000000000    -12.311560000000000      5.889880000000000
C      -4.327120000000000     -6.599030000000000      6.116410000000000
C      -4.283630000000000     -7.949430000000000      6.393220000000000
C      -3.827670000000000     -8.085000000000001      7.690270000000000
C      -3.617890000000000     -6.868440000000000      8.188750000000001
N      -3.910720000000000     -5.867250000000000      7.236980000000000
C      -3.123740000000000     -6.575590000000000      9.567140000000000
N      -4.062230000000000     -7.113860000000000     10.559170000000000
C      -3.600460000000000     -7.238980000000000     11.961890000000000
H      -4.559120000000000     -8.744440000000001      5.714330000000000
H      -4.642240000000000     -6.157110000000000      5.181260000000000
H      -3.670450000000000     -9.014070000000000      8.222870000000000
H      -2.123740000000000     -7.035410000000000      9.660090000000000
H      -3.040020000000000     -5.477670000000000      9.699820000000001
C      -3.241370000000000     -5.846530000000000     12.512750000000000
C      -4.748270000000000     -7.819140000000000     12.799180000000000
C      -2.383280000000000     -8.186159999999999     12.101880000000000
H      -4.112530000000000     -5.163370000000000     12.413250000000000
H      -2.956630000000000     -5.904520000000000     13.584930000000000
H      -2.385590000000000     -5.408720000000000     11.957660000000001
H      -5.019150000000000     -8.833140000000000     12.435309999999999
H      -4.453630000000000     -7.906160000000000     13.868930000000001
H      -5.640620000000000     -7.164530000000000     12.733779999999999
H      -2.625630000000000     -9.203490000000000     11.727720000000000
H      -1.490440000000000     -7.811600000000000     11.563540000000000
H      -2.084770000000000     -8.271559999999999     13.170610000000000
Mg     -5.698100000000000     -8.187469999999999      9.799149999999999
H      -8.441910000000000     -7.407950000000000      9.758950000000000
C      -7.535330000000000     -6.471500000000000      8.023750000000000
C      -7.470610000000000     -6.949550000000000      9.467079999999999
C      -7.983220000000000     -7.560950000000000      7.037510000000000
H      -8.264430000000001     -5.637070000000000      7.966030000000000
H      -6.531680000000000     -6.093620000000000      7.755480000000000
H      -7.315000000000000     -8.447089999999999      7.085990000000000
H      -9.017910000000001     -7.879530000000000      7.286620000000000
C      -7.988490000000000     -7.012100000000000      5.610800000000000
H      -7.288220000000000     -6.087970000000000     10.137890000000001
H      -8.645210000000001     -6.118360000000000      5.542150000000000
H      -6.964050000000000     -6.722010000000000      5.307790000000000
H      -8.359080000000001     -7.781070000000000      4.901340000000000
C      -9.346650000000000    -12.662850000000001      7.981190000000000
C      -9.391930000000000    -11.345530000000000      7.578530000000000
C      -9.702790000000000    -10.586900000000000      8.691030000000000
C      -9.826190000000000    -11.408650000000000      9.732930000000000
N      -9.616660000000000    -12.750830000000001      9.356030000000001
C     -10.160140000000000    -10.980880000000001     11.126440000000001
N      -9.131869999999999    -10.061740000000000     11.627150000000000
C      -9.438820000000000     -9.258110000000000     12.835190000000001
H      -9.214740000000001    -10.983070000000000      6.574690000000000
H      -9.128130000000001    -13.509259999999999      7.345610000000000
H      -9.823499999999999     -9.513249999999999      8.724270000000001
H     -11.155960000000000    -10.501920000000000     11.089760000000000
H     -10.204639999999999    -11.874900000000000     11.782130000000000
C      -9.700500000000000    -10.197979999999999     14.026400000000001
C      -8.220300000000000     -8.382520000000000     13.156720000000000
C     -10.655790000000000     -8.322410000000000     12.631470000000000
H      -8.829520000000000    -10.872080000000000     14.175730000000000
H      -9.865320000000001     -9.619220000000000     14.960319999999999
H     -10.602040000000001    -10.820959999999999     13.849850000000000
H      -8.017500000000000     -7.679100000000000     12.321240000000000
H      -8.396730000000000     -7.780320000000000     14.076060000000000
H      -7.324140000000000     -9.014770000000000     13.318870000000000
H     -10.481870000000001     -7.619810000000000     11.788990000000000
H     -11.593109999999999     -8.881620000000000     12.442380000000000
H     -10.835710000000001     -7.721930000000000     13.551340000000000
