215

Na      0.371480000000000     -0.088670000000000      0.011160000000000
C      -0.378840000000000      0.140730000000000      3.055750000000000
C       1.867800000000000     -0.530660000000000      2.888010000000000
O       0.621430000000000     -0.426490000000000      2.234840000000000
C      -0.405120000000000      1.660970000000000      2.927910000000000
C       1.992730000000000     -1.888620000000000      3.565500000000000
H      -1.356640000000000     -0.247900000000000      2.703450000000000
H      -0.287340000000000     -0.170910000000000      4.118660000000000
H       2.662610000000000     -0.448240000000000      2.114960000000000
H       2.051210000000000      0.297600000000000      3.608030000000000
H       1.859420000000000     -2.700020000000000      2.818370000000000
H       2.996700000000000     -1.983530000000000      4.025870000000000
H       1.222400000000000     -1.995740000000000      4.356320000000000
H      -0.545740000000000      1.957200000000000      1.867840000000000
H      -1.250990000000000      2.063910000000000      3.523600000000000
H       0.538760000000000      2.103640000000000      3.305770000000000
C       1.047220000000000     -0.521850000000000     -3.089200000000000
C       1.894070000000000     -2.295230000000000     -1.815870000000000
O       1.414170000000000     -0.970660000000000     -1.802780000000000
C      -0.388530000000000     -0.914090000000000     -3.432430000000000
C       2.109890000000000     -2.738710000000000     -0.372430000000000
H       1.093770000000000      0.587640000000000     -3.070610000000000
H       1.762270000000000     -0.850380000000000     -3.875130000000000
H       1.160820000000000     -2.992250000000000     -2.275180000000000
H       2.867630000000000     -2.348020000000000     -2.348990000000000
H       1.153430000000000     -2.696670000000000      0.191940000000000
H       2.494590000000000     -3.779320000000000     -0.344050000000000
H       2.843840000000000     -2.070270000000000      0.125670000000000
H      -1.083140000000000     -0.556880000000000     -2.644490000000000
H      -0.677600000000000     -0.448200000000000     -4.397660000000000
H      -0.487340000000000     -2.013580000000000     -3.530790000000000
C       1.651700000000000      2.665000000000000     -0.878690000000000
C      -0.670800000000000      2.999930000000000     -0.994040000000000
O       0.372220000000000      2.072550000000000     -0.782020000000000
C       2.132600000000000      3.140450000000000      0.488000000000000
C      -1.069910000000000      3.026110000000000     -2.464420000000000
H       2.356360000000000      1.886320000000000     -1.241360000000000
H       1.689840000000000      3.490190000000000     -1.624560000000000
H      -1.545590000000000      2.662480000000000     -0.400220000000000
H      -0.425030000000000      4.020970000000000     -0.625550000000000
H      -1.358410000000000      2.007930000000000     -2.800880000000000
H      -1.935560000000000      3.706910000000000     -2.601600000000000
H      -0.225730000000000      3.386050000000000     -3.087470000000000
H       2.149510000000000      2.291680000000000      1.204450000000000
H       3.160530000000000      3.550040000000000      0.396350000000000
H       1.464820000000000      3.934720000000000      0.880480000000000
C      -3.057890000000000     -0.121980000000000     -0.387960000000000
C      -2.080280000000000     -2.072830000000000      0.481800000000000
O      -1.863040000000000     -0.752920000000000      0.023600000000000
C      -3.703060000000000      0.625940000000000      0.773590000000000
C      -1.958200000000000     -3.072130000000000     -0.662550000000000
H      -2.792850000000000      0.616400000000000     -1.173230000000000
H      -3.778530000000000     -0.826550000000000     -0.859280000000000
H      -1.289920000000000     -2.305120000000000      1.227270000000000
H      -3.050990000000000     -2.191240000000000      1.012610000000000
H      -0.964450000000000     -2.979340000000000     -1.143460000000000
H      -2.067100000000000     -4.103780000000000     -0.267490000000000
H      -2.744430000000000     -2.893490000000000     -1.423790000000000
H      -2.989390000000000      1.360560000000000      1.201880000000000
H      -4.599880000000000      1.169700000000000      0.410160000000000
H      -4.011650000000000     -0.082740000000000      1.569030000000000
Na      8.373300000000000     -4.638870000000000      6.814000000000000
C       5.896800000000000     -6.585750000000000      7.189360000000000
C       6.024400000000000     -5.147160000000000      9.041190000000000
O       6.713430000000000     -5.720350000000000      7.950790000000000
C       5.171170000000000     -5.824200000000000      6.084630000000000
C       6.229670000000000     -5.994720000000000     10.288600000000001
H       6.561470000000000     -7.335200000000000      6.711470000000000
H       5.181460000000000     -7.162020000000000      7.816570000000000
H       6.454930000000000     -4.138430000000000      9.222340000000001
H       4.941100000000000     -4.988230000000000      8.839430000000000
H       7.315370000000000     -6.097810000000000     10.500629999999999
H       5.735540000000000     -5.510000000000000     11.155630000000000
H       5.792920000000000     -7.003860000000000     10.140930000000001
H       5.902510000000000     -5.291860000000000      5.441880000000000
H       4.600310000000000     -6.540610000000000      5.457640000000000
H       4.464250000000000     -5.086410000000000      6.515990000000000
C      11.040800000000001     -2.832290000000000      6.494100000000000
C      10.849119999999999     -3.634690000000000      8.681640000000000
O      10.180099999999999     -3.383440000000000      7.467130000000000
C      11.771380000000001     -3.922720000000000      5.714110000000000
C       9.896089999999999     -4.380980000000000      9.608350000000000
H      10.404450000000001     -2.274240000000000      5.774870000000000
H      11.751150000000001     -2.090150000000000      6.921910000000000
H      11.742800000000001     -4.278050000000000      8.531400000000000
H      11.136139999999999     -2.677980000000000      9.169340000000000
H       9.586399999999999     -5.344130000000000      9.148610000000000
H      10.393710000000000     -4.591810000000000     10.577730000000001
H       8.988239999999999     -3.768750000000000      9.794720000000000
H      11.042700000000000     -4.637300000000000      5.279280000000000
H      12.346360000000001     -3.456900000000000      4.888460000000000
H      12.476450000000000     -4.476150000000000      6.366810000000000
C       7.323500000000000     -1.977160000000000      5.421020000000000
C       7.636140000000000     -3.488250000000000      3.652840000000000
O       7.806840000000000     -3.247680000000000      5.033770000000000
C       5.872120000000000     -2.072230000000000      5.876130000000000
C       8.884660000000000     -3.071600000000000      2.886340000000000
H       7.936550000000000     -1.629560000000000      6.279710000000000
H       7.441100000000000     -1.207750000000000      4.624630000000000
H       7.486610000000000     -4.579580000000000      3.516400000000000
H       6.727390000000000     -2.999120000000000      3.234160000000000
H       9.772280000000000     -3.605560000000000      3.286290000000000
H       8.764770000000000     -3.327080000000000      1.813110000000000
H       9.048109999999999     -1.978410000000000      2.981560000000000
H       5.781640000000000     -2.798420000000000      6.711660000000000
H       5.526380000000000     -1.077200000000000      6.226760000000000
H       5.226080000000000     -2.401820000000000      5.037320000000000
C       9.335599999999999     -7.036540000000000      4.463130000000000
C       9.562690000000000     -7.629660000000000      6.721760000000000
O       9.151000000000000     -6.634670000000000      5.805090000000000
C       8.082050000000001     -7.720410000000000      3.929890000000000
C      11.026579999999999     -7.440530000000000      7.101330000000000
H       9.519700000000000     -6.122630000000000      3.860560000000000
H      10.231370000000000     -7.682660000000000      4.323140000000000
H       8.947670000000000     -7.518550000000000      7.640190000000000
H       9.379140000000000     -8.663160000000000      6.350720000000000
H      11.180740000000000     -6.426050000000000      7.519710000000000
H      11.311950000000000     -8.190610000000000      7.868130000000000
H      11.679480000000000     -7.567010000000000      6.213950000000000
H       7.206260000000000     -7.045790000000000      4.030580000000000
H       8.222880000000000     -7.967640000000000      2.857050000000000
H       7.882250000000000     -8.656660000000000      4.490370000000000
Mg     18.370110000000000     -7.304620000000000      2.147150000000000
C      18.452279999999998     -6.172320000000000     -0.358810000000000
C      16.900569999999998     -5.588820000000000     -2.002150000000000
O      17.132600000000000     -5.733750000000000     -0.618170000000000
C      19.490130000000001     -5.082750000000000     -0.510060000000000
C      15.414870000000001     -5.782840000000000     -2.282080000000000
H      16.833810000000000     -8.125780000000001     -0.405870000000000
H      18.731870000000001     -7.105050000000000     -0.894250000000000
H      17.191780000000001     -4.563490000000000     -2.311890000000000
H      17.448969999999999     -6.339090000000000     -2.614970000000000
H      14.813340000000000     -5.055560000000000     -1.696380000000000
H      15.215560000000000     -5.627400000000000     -3.363200000000000
H      15.098250000000000     -6.811490000000000     -2.009070000000000
H      19.187860000000001     -4.194670000000000      0.074150000000000
H      20.457999999999998     -5.465810000000000     -0.125870000000000
H      19.597390000000001     -4.810820000000000     -1.578130000000000
H      20.596599999999999     -8.846050000000000      2.370680000000000
C      21.096480000000000     -7.381400000000000      3.897670000000000
C      20.497299999999999     -7.754490000000000      2.531670000000000
C      20.351530000000000     -8.024820000000000      5.072920000000000
H      22.157830000000001     -7.713280000000000      3.916790000000000
H      21.089210000000001     -6.284910000000000      4.007000000000000
H      19.293650000000000     -7.695290000000000      5.066360000000000
H      20.390730000000001     -9.127969999999999      4.973860000000000
C      20.975590000000000     -7.657560000000000      6.420570000000000
H      21.076709999999999     -7.228360000000000      1.743490000000000
H      22.029150000000001     -8.006480000000000      6.466960000000000
H      20.947620000000001     -6.561300000000000      6.589630000000000
H      20.408300000000001     -8.150440000000000      7.239200000000000
C      17.679990000000000     -9.917820000000001      3.292280000000000
C      16.885410000000000    -11.034610000000001      3.323740000000000
C      15.923750000000000    -10.856629999999999      2.359500000000000
C      16.180070000000001     -9.636630000000000      1.767440000000000
N      17.260130000000000     -9.057969999999999      2.353360000000000
C      15.363470000000000     -9.096760000000000      0.625720000000000
N      16.151900000000001     -8.878550000000001     -0.595810000000000
C      16.836929999999999    -10.019909999999999     -1.257790000000000
H      17.003240000000002    -11.883279999999999      3.979160000000000
H      18.531649999999999     -9.740280000000000      3.919400000000000
H      15.132379999999999    -11.546600000000000      2.105090000000000
H      14.515359999999999     -9.776020000000001      0.398440000000000
H      14.895949999999999     -8.138240000000000      0.926380000000000
C      15.899070000000000    -11.233549999999999     -1.409510000000000
C      17.253290000000000     -9.552519999999999     -2.666270000000000
C      18.126180000000002    -10.434060000000001     -0.508240000000000
H      14.980110000000000    -10.945370000000000     -1.963750000000000
H      16.406910000000000    -12.051360000000001     -1.964060000000000
H      15.605580000000000    -11.639230000000000     -0.420400000000000
H      17.945270000000001     -8.686959999999999     -2.603580000000000
H      17.777090000000001    -10.365769999999999     -3.214660000000000
H      16.364540000000002     -9.245229999999999     -3.257750000000000
H      18.795850000000002     -9.558090000000000     -0.366990000000000
H      17.921520000000001    -10.883509999999999      0.476650000000000
H      18.679939999999998    -11.205570000000000     -1.082480000000000
Mg     18.069330000000001     -5.703450000000000      5.309150000000000
H      18.014330000000001     -7.159500000000000      7.534820000000000
C      15.941459999999999     -7.202480000000000      6.926410000000000
C      17.238230000000001     -6.459120000000000      7.159450000000000
C      16.129510000000000     -8.223369999999999      5.808460000000000
H      15.627459999999999     -7.703120000000000      7.867560000000000
H      15.156829999999999     -6.474510000000000      6.640340000000000
H      16.489270000000001     -7.704590000000000      4.898030000000000
H      16.896370000000001     -8.974399999999999      6.097150000000000
C      14.811389999999999     -8.919510000000001      5.498210000000000
H      17.098970000000001     -5.652880000000000      7.910400000000000
H      14.453220000000000     -9.471299999999999      6.391700000000000
H      14.047630000000000     -8.173780000000001      5.190330000000000
H      14.949439999999999     -9.636310000000000      4.668420000000000
C      18.800930000000001     -1.962600000000000      5.912650000000000
C      19.806840000000001     -2.825550000000000      6.307100000000000
C      19.967970000000001     -3.731760000000000      5.283480000000000
C      19.077010000000001     -3.413780000000000      4.351930000000000
N      18.347819999999999     -2.285430000000000      4.758240000000000
C      18.806500000000000     -4.204740000000000      3.103870000000000
N      17.667670000000001     -5.108510000000000      3.327810000000000
C      16.283230000000000     -4.663230000000000      3.030770000000000
H      20.329820000000002     -2.830880000000000      7.254500000000000
H      18.419000000000000     -1.133740000000000      6.487590000000000
H      20.640860000000000     -4.571460000000000      5.279550000000000
H      19.679590000000001     -4.863440000000000      2.926900000000000
H      18.746070000000000     -3.570860000000000      2.202690000000000
C      16.213809999999999     -3.555810000000000      1.954100000000000
C      15.507640000000000     -5.877810000000000      2.489350000000000
C      15.599810000000000     -4.182920000000000      4.311850000000000
H      16.706530000000001     -3.886370000000000      1.017400000000000
H      15.157200000000000     -3.311710000000000      1.712260000000000
H      16.699339999999999     -2.622620000000000      2.305120000000000
H      15.508020000000000     -6.718970000000000      3.205610000000000
H      14.447990000000001     -5.618580000000000      2.274930000000000
H      15.973530000000000     -6.235610000000000      1.551340000000000
H      15.587280000000000     -4.995550000000000      5.057850000000000
H      16.122420000000002     -3.317000000000000      4.749250000000000
H      14.552780000000000     -3.884350000000000      4.101370000000000
