230

Na      0.144340000000000     -0.050120000000000     -0.355320000000000
C       2.491690000000000      1.428310000000000      1.110440000000000
C       3.200290000000000      0.882900000000000     -1.064690000000000
O       2.275930000000000      0.623350000000000     -0.030690000000000
C       1.721570000000000      2.742880000000000      1.019150000000000
C       4.408910000000000     -0.035160000000000     -0.934060000000000
H       2.106570000000000      0.868930000000000      1.987840000000000
H       3.570130000000000      1.608580000000000      1.308280000000000
H       2.695900000000000      0.664270000000000     -2.031110000000000
H       3.507890000000000      1.950940000000000     -1.112410000000000
H       4.083640000000000     -1.097560000000000     -0.943470000000000
H       5.101110000000000      0.137310000000000     -1.783780000000000
H       4.946270000000000      0.169010000000000      0.014510000000000
H       0.639040000000000      2.548730000000000      0.871840000000000
H       1.853150000000000      3.310380000000000      1.964460000000000
H       2.096670000000000      3.361230000000000      0.178670000000000
C      -2.174320000000000     -1.737050000000000     -1.758580000000000
C      -0.092250000000000     -2.736700000000000     -2.155450000000000
O      -0.773770000000000     -1.566990000000000     -1.765060000000000
C      -2.663470000000000     -2.325310000000000     -0.436500000000000
C       1.403740000000000     -2.494950000000000     -1.978680000000000
H      -2.623130000000000     -0.725930000000000     -1.858390000000000
H      -2.535760000000000     -2.325430000000000     -2.630090000000000
H      -0.370690000000000     -3.605240000000000     -1.520870000000000
H      -0.288410000000000     -2.959150000000000     -3.226320000000000
H       1.636080000000000     -2.268960000000000     -0.915710000000000
H       1.978890000000000     -3.392050000000000     -2.284750000000000
H       1.726500000000000     -1.633960000000000     -2.601510000000000
H      -2.307350000000000     -1.708470000000000      0.414220000000000
H      -3.773510000000000     -2.335520000000000     -0.425540000000000
H      -2.302030000000000     -3.364890000000000     -0.306640000000000
C      -1.488470000000000      2.113390000000000     -1.978890000000000
C      -2.314040000000000      2.229280000000000      0.218830000000000
O      -1.467980000000000      1.548820000000000     -0.683380000000000
C      -0.393270000000000      3.163980000000000     -2.131370000000000
C      -3.700300000000000      1.595710000000000      0.234200000000000
H      -1.285810000000000      1.296540000000000     -2.704330000000000
H      -2.483300000000000      2.531120000000000     -2.250970000000000
H      -1.873100000000000      2.128290000000000      1.232280000000000
H      -2.372690000000000      3.322000000000000      0.017200000000000
H      -3.626720000000000      0.516660000000000      0.486210000000000
H      -4.329140000000000      2.098440000000000      0.998170000000000
H      -4.184990000000000      1.701980000000000     -0.757770000000000
H       0.601020000000000      2.715760000000000     -1.920210000000000
H      -0.394800000000000      3.551150000000000     -3.172100000000000
H      -0.566150000000000      4.010330000000000     -1.435330000000000
C      -1.037650000000000     -0.448260000000000      2.850460000000000
C       0.805540000000000     -1.771740000000000      2.236250000000000
O      -0.108730000000000     -0.769870000000000      1.836110000000000
C      -0.517500000000000      0.688630000000000      3.724190000000000
C       0.278770000000000     -3.160810000000000      1.892430000000000
H      -1.969160000000000     -0.105610000000000      2.353430000000000
H      -1.324370000000000     -1.328250000000000      3.467400000000000
H       1.747980000000000     -1.612370000000000      1.669740000000000
H       1.076120000000000     -1.702540000000000      3.313060000000000
H       0.069430000000000     -3.231070000000000      0.806800000000000
H       1.041330000000000     -3.923440000000000      2.156290000000000
H      -0.653430000000000     -3.375510000000000      2.452970000000000
H      -0.283990000000000      1.578090000000000      3.102150000000000
H      -1.293530000000000      0.968150000000000      4.467140000000000
H       0.399100000000000      0.376120000000000      4.264680000000000
Na      1.596860000000000    -14.804919999999999     -9.557259999999999
C       2.191780000000000    -15.869339999999999    -12.492190000000001
C      -0.027230000000000    -15.108599999999999    -12.387219999999999
O       1.094860000000000    -15.558059999999999    -11.658260000000000
C       3.070340000000000    -14.643770000000000    -12.721480000000000
C      -0.948740000000000    -16.279940000000000    -12.695489999999999
H       2.800160000000000    -16.636360000000000    -11.969320000000000
H       1.880400000000000    -16.326570000000000    -13.457269999999999
H      -0.576850000000000    -14.381760000000000    -11.750610000000000
H       0.245620000000000    -14.559580000000000    -13.316640000000000
H      -1.249560000000000    -16.782070000000001    -11.751200000000001
H      -1.857150000000000    -15.914210000000001    -13.216930000000000
H      -0.429100000000000    -17.013800000000000    -13.345430000000000
H       3.407950000000000    -14.227320000000001    -11.749860000000000
H       3.962400000000000    -14.935820000000000    -13.314069999999999
H       2.514140000000000    -13.861250000000000    -13.276859999999999
C       0.979660000000000    -13.945000000000000     -6.491570000000000
C      -0.786840000000000    -15.199920000000001     -7.370320000000000
O       0.351880000000000    -14.422190000000001     -7.662350000000000
C       1.973600000000000    -14.964020000000000     -5.939100000000000
C      -1.292120000000000    -15.819500000000000     -8.668490000000000
H       1.552050000000000    -13.036320000000000     -6.775140000000000
H       0.249880000000000    -13.623110000000000     -5.715430000000000
H      -0.547710000000000    -16.032499999999999     -6.674100000000000
H      -1.592430000000000    -14.560510000000001     -6.949020000000000
H      -0.508420000000000    -16.466429999999999     -9.118190000000000
H      -2.193440000000000    -16.436380000000000     -8.470820000000000
H      -1.553800000000000    -15.021570000000001     -9.395410000000000
H       2.703440000000000    -15.251670000000001     -6.723400000000000
H       2.526420000000000    -14.517289999999999     -5.089000000000000
H       1.452280000000000    -15.872980000000000     -5.577780000000000
C       2.175790000000000    -11.673740000000000     -9.515420000000001
C       4.284760000000000    -12.665490000000000     -9.242610000000001
O       2.890850000000000    -12.877310000000000     -9.320580000000000
C       1.960720000000000    -11.413209999999999    -11.001780000000000
C       4.710850000000000    -12.486760000000000     -7.791190000000000
H       1.181590000000000    -11.789590000000000     -9.033620000000001
H       2.657920000000000    -10.798500000000001     -9.023740000000000
H       4.786610000000000    -13.568170000000000     -9.649310000000000
H       4.631890000000000    -11.812870000000000     -9.869470000000000
H       4.398780000000000    -13.368090000000000     -7.192290000000000
H       5.814860000000000    -12.387960000000000     -7.737380000000000
H       4.244960000000000    -11.575799999999999     -7.362120000000000
H       1.425050000000000    -12.269259999999999    -11.464370000000001
H       1.350300000000000    -10.495290000000001    -11.133330000000001
H       2.934200000000000    -11.272980000000000    -11.515580000000000
C       4.465520000000000    -16.656800000000000     -8.791650000000001
C       2.512360000000000    -17.878340000000001     -9.234830000000001
O       3.100170000000000    -16.594909999999999     -9.150190000000000
C       5.344290000000000    -16.724119999999999    -10.035090000000000
C       1.910040000000000    -18.284079999999999     -7.895250000000000
H       4.710850000000000    -15.726310000000000     -8.238250000000001
H       4.694340000000000    -17.496630000000000     -8.097440000000001
H       1.693340000000000    -17.826860000000000     -9.983459999999999
H       3.219230000000000    -18.655570000000001     -9.603450000000000
H       1.169070000000000    -17.527370000000001     -7.568990000000000
H       1.398820000000000    -19.263890000000000     -7.998740000000000
H       2.700650000000000    -18.370629999999998     -7.122180000000000
H       5.140420000000000    -15.854609999999999    -10.694279999999999
H       6.412760000000000    -16.704609999999999     -9.735220000000000
H       5.147200000000000    -17.658650000000002    -10.599430000000000
Mg      2.833040000000000     -8.482189999999999     -0.323760000000000
C       2.929040000000000     -8.408110000000001      2.727620000000000
C       5.156990000000000     -8.968850000000000      2.217410000000000
O       3.851650000000000     -8.784979999999999      1.732550000000000
C       2.739330000000000     -6.900390000000000      2.747980000000000
C       6.099560000000000     -8.926310000000001      1.022680000000000
H       1.956300000000000     -8.877179999999999      2.473410000000000
H       3.200300000000000     -8.771530000000000      3.730170000000000
H       5.461630000000000     -8.173069999999999      2.933040000000000
H       5.239970000000000     -9.965960000000001      2.686590000000000
H       6.066130000000000     -7.922600000000000      0.551380000000000
H       7.138360000000000     -9.150330000000000      1.340780000000000
H       5.785840000000000     -9.670339999999999      0.261340000000000
H       2.397180000000000     -6.546920000000000      1.752250000000000
H       1.970940000000000     -6.637880000000000      3.506010000000000
H       3.693150000000000     -6.399640000000000      3.011480000000000
H       4.248510000000000     -6.318060000000000     -1.301130000000000
C       3.705020000000000     -7.174030000000000     -3.251410000000000
C       4.330560000000000     -7.266120000000000     -1.872300000000000
C       2.229340000000000     -6.763500000000000     -3.175860000000000
H       4.275520000000000     -6.425570000000000     -3.835250000000000
H       3.789190000000000     -8.165480000000001     -3.746190000000000
H       1.647700000000000     -7.519300000000000     -2.618350000000000
H       2.129790000000000     -5.791080000000000     -2.649830000000000
C       1.633370000000000     -6.640110000000000     -4.572270000000000
H       5.376100000000000     -7.630220000000000     -1.911650000000000
H       2.191710000000000     -5.876620000000000     -5.153490000000000
H       1.687490000000000     -7.616720000000000     -5.099900000000000
H       0.569280000000000     -6.330640000000000     -4.502100000000000
C      -0.034690000000000     -7.500230000000000     -0.471970000000000
C      -1.322100000000000     -7.976200000000000     -0.588350000000000
C      -1.233250000000000     -9.357640000000000     -0.618270000000000
C       0.108740000000000     -9.662890000000001     -0.532730000000000
N       0.819650000000000     -8.533410000000000     -0.451590000000000
C       0.714770000000000    -11.036149999999999     -0.513600000000000
N       2.179300000000000    -10.993100000000000     -0.697820000000000
C       2.669890000000000    -11.481180000000000     -2.007880000000000
H      -2.220620000000000     -7.379040000000000     -0.645710000000000
H       0.268490000000000     -6.461670000000000     -0.413760000000000
H      -2.051370000000000    -10.057340000000000     -0.707430000000000
H       0.494260000000000    -11.474489999999999      0.465740000000000
H       0.209440000000000    -11.686940000000000     -1.247190000000000
C       1.942100000000000    -10.785700000000000     -3.175490000000000
C       4.167540000000000    -11.142150000000001     -2.134790000000000
C       2.516310000000000    -13.012219999999999     -2.093870000000000
H       2.072070000000000     -9.692340000000000     -3.087430000000000
H       2.357840000000000    -11.116669999999999     -4.149620000000000
H       0.857070000000000    -11.000600000000000     -3.191570000000000
H       4.760200000000000    -11.638949999999999     -1.354220000000000
H       4.568580000000000    -11.484260000000001     -3.114340000000000
H       4.339970000000000    -10.051450000000001     -2.048570000000000
H       3.056490000000000    -13.501720000000001     -1.256160000000000
H       1.456050000000000    -13.325170000000000     -2.046460000000000
H       2.937800000000000    -13.392870000000000     -3.045580000000000
Mg      3.155720000000000    -12.015950000000000      1.630550000000000
C       2.639610000000000    -15.037800000000001      2.047510000000000
C       0.818090000000000    -14.652460000000000      0.566860000000000
O       1.913510000000000    -14.104150000000001      1.272520000000000
C       3.471870000000000    -15.996079999999999      1.201730000000000
C      -0.235300000000000    -15.308540000000001      1.458090000000000
H       3.326660000000000    -14.447210000000000      2.681010000000000
H       2.006730000000000    -15.580430000000000      2.773800000000000
H       0.310150000000000    -13.799289999999999      0.075270000000000
H       1.155630000000000    -15.321009999999999     -0.250860000000000
H      -0.538440000000000    -14.615119999999999      2.270470000000000
H      -1.124520000000000    -15.556530000000000      0.844170000000000
H       0.144630000000000    -16.254030000000000      1.892240000000000
H       4.137150000000000    -15.440250000000001      0.515190000000000
H       4.098500000000000    -16.619940000000000      1.872660000000000
H       2.817430000000000    -16.662019999999998      0.607360000000000
H       4.955450000000000    -13.403610000000000      0.151520000000000
C       6.098310000000000    -13.506810000000000      1.978600000000000
C       5.193460000000000    -12.741360000000000      1.005340000000000
C       7.274680000000000    -14.210350000000000      1.278690000000000
H       6.496470000000000    -12.819319999999999      2.750970000000000
H       5.510340000000000    -14.297990000000000      2.477040000000000
H       7.850830000000000    -14.764410000000000      2.051090000000000
H       6.884510000000000    -14.950690000000000      0.545920000000000
C       8.228540000000001    -13.255739999999999      0.562470000000000
H       5.762950000000000    -11.880480000000000      0.614560000000000
H       7.716010000000000    -12.731380000000000     -0.270240000000000
H       8.637850000000000    -12.510949999999999      1.276430000000000
H       9.070430000000000    -13.837870000000001      0.130730000000000
C       4.737120000000000     -9.330650000000000      6.647080000000000
C       4.580490000000000    -10.376420000000000      7.537510000000000
C       4.274060000000000    -11.499240000000000      6.791960000000000
C       4.244790000000000    -11.101889999999999      5.533560000000000
N       4.550060000000000     -9.736920000000000      5.445850000000000
C       3.927730000000000    -11.962289999999999      4.357620000000000
N       2.765050000000000    -11.468790000000000      3.616070000000000
C       1.407670000000000    -11.654500000000001      4.229870000000000
H       4.665880000000000    -10.323130000000001      8.613280000000000
H       4.976870000000000     -8.307079999999999      6.889040000000000
H       4.075030000000000    -12.498450000000000      7.148630000000000
H       3.819460000000000    -13.033840000000000      4.614280000000000
H       4.794200000000000    -11.896420000000001      3.692440000000000
C       1.117220000000000    -10.504780000000000      5.215570000000000
C       0.322130000000000    -11.587020000000001      3.143900000000000
C       1.245080000000000    -13.008400000000000      4.959970000000000
H       1.169890000000000     -9.525490000000000      4.697400000000000
H       0.097050000000000    -10.602280000000000      5.644530000000000
H       1.822010000000000    -10.491780000000000      6.063020000000000
H       0.437460000000000    -12.422870000000000      2.433860000000000
H      -0.692780000000000    -11.683630000000001      3.593840000000000
H       0.353460000000000    -10.620740000000000      2.600900000000000
H       1.402920000000000    -13.852480000000000      4.261940000000000
H       1.946090000000000    -13.102410000000001      5.812610000000000
H       0.220320000000000    -13.103520000000000      5.380720000000000
