110

Na      1.844140000000000     -0.990100000000000      0.001630000000000
C      -1.259950000000000      0.134520000000000     -1.000870000000000
C      -0.680680000000000      1.137600000000000      1.003290000000000
O      -0.273500000000000      0.235820000000000      0.000130000000000
C      -0.769270000000000     -0.848200000000000     -2.056190000000000
C       0.418150000000000      1.208140000000000      2.056070000000000
H      -2.213540000000000     -0.258680000000000     -0.580920000000000
H      -1.425890000000000      1.117970000000000     -1.496620000000000
H      -0.823020000000000      2.159930000000000      0.584950000000000
H      -1.612430000000000      0.784650000000000      1.500830000000000
H       1.365670000000000      1.558790000000000      1.593220000000000
H       0.131400000000000      1.912200000000000      2.864980000000000
H       0.586590000000000      0.202170000000000      2.497220000000000
H      -0.593230000000000     -1.842870000000000     -1.594470000000000
H      -1.523330000000000     -0.954560000000000     -2.863800000000000
H       0.183640000000000     -0.486080000000000     -2.498680000000000
Na      0.568600000000000     -4.359940000000000     12.232150000000001
C      -1.914430000000000     -5.125890000000000      9.841910000000000
C       0.162180000000000     -5.262440000000000      8.843120000000001
O      -0.526080000000000     -4.990150000000000     10.042120000000001
C      -2.620290000000000     -4.831450000000000     11.157740000000000
C       1.654180000000000     -5.106960000000000      9.098730000000000
H      -2.279260000000000     -4.395440000000000      9.084330000000000
H      -2.172820000000000     -6.166000000000000      9.538100000000000
H      -0.021130000000000     -6.309010000000000      8.511010000000001
H      -0.127730000000000     -4.540780000000000      8.045600000000000
H       1.979310000000000     -5.818080000000000      9.888240000000000
H       2.223770000000000     -5.314770000000000      8.168850000000001
H       1.875570000000000     -4.071210000000000      9.434600000000000
H      -2.385640000000000     -3.797650000000000     11.490670000000000
H      -3.718780000000000     -4.929430000000000     11.031670000000000
H      -2.281070000000000     -5.546040000000000     11.938110000000000
Mg     -3.794700000000000     -7.175270000000000      2.254270000000000
H      -6.595660000000000     -7.117420000000000      2.609520000000000
C      -5.979230000000000     -9.159730000000000      2.106080000000000
C      -5.896110000000000     -7.649560000000000      1.932490000000000
C      -5.689060000000000     -9.521100000000001      3.558720000000000
H      -6.978160000000000     -9.546310000000000      1.813900000000000
H      -5.216600000000000     -9.619170000000000      1.442840000000000
H      -4.774390000000000     -9.007130000000000      3.881750000000000
H      -6.518300000000000     -9.161960000000001      4.203550000000000
C      -5.486570000000000    -11.021110000000000      3.735660000000000
H      -6.138110000000000     -7.388360000000000      0.879070000000000
H      -6.395240000000000    -11.574890000000000      3.423140000000000
H      -4.619500000000000    -11.363530000000001      3.128340000000000
H      -5.272070000000000    -11.240349999999999      4.802670000000000
C      -0.675040000000000    -10.989730000000000      0.239890000000000
C      -1.235960000000000    -10.825830000000000      1.494620000000000
C      -2.180220000000000     -9.826340000000000      1.368290000000000
C      -2.159040000000000     -9.436070000000001      0.105730000000000
N      -1.207940000000000    -10.189420000000000     -0.607020000000000
C      -3.014810000000000     -8.353820000000001     -0.490180000000000
N      -2.523180000000000     -7.029920000000000     -0.063760000000000
C      -1.939250000000000     -6.185590000000000     -1.130020000000000
H      -0.985020000000000    -11.372350000000001      2.395850000000000
H       0.107640000000000    -11.690899999999999     -0.013910000000000
H      -2.826000000000000     -9.438800000000001      2.131490000000000
H      -4.061820000000000     -8.488289999999999     -0.161000000000000
H      -3.048940000000000     -8.469030000000000     -1.586570000000000
C      -3.069340000000000     -5.664560000000000     -2.034600000000000
C      -1.231720000000000     -4.975080000000000     -0.489780000000000
C      -0.856870000000000     -6.941380000000000     -1.934020000000000
H      -3.813580000000000     -5.105280000000000     -1.425120000000000
H      -2.669720000000000     -4.982270000000000     -2.812260000000000
H      -3.604320000000000     -6.495510000000000     -2.535460000000000
H      -0.436650000000000     -5.312570000000000      0.202730000000000
H      -0.759770000000000     -4.336860000000000     -1.265450000000000
H      -1.924290000000000     -4.322060000000000      0.060710000000000
H      -0.060540000000000     -7.300750000000000     -1.247540000000000
H      -1.249250000000000     -7.811200000000000     -2.490520000000000
H      -0.397040000000000     -6.264730000000000     -2.684290000000000
Mg     -0.779050000000000     -7.152530000000000      1.783770000000000
H       1.633570000000000     -8.384410000000001      2.409730000000000
C       2.216030000000000     -6.801350000000000      1.006570000000000
C       1.240310000000000     -7.868320000000000      1.511010000000000
C       2.595190000000000     -5.778250000000000      2.082780000000000
H       3.147290000000000     -7.326320000000000      0.706040000000000
H       1.808570000000000     -6.292200000000000      0.105330000000000
H       2.958620000000000     -6.321250000000000      2.981910000000000
H       3.424100000000000     -5.147180000000000      1.697680000000000
C       1.452010000000000     -4.848170000000000      2.466070000000000
H       1.121160000000000     -8.624040000000001      0.704140000000000
H       1.137560000000000     -4.238420000000000      1.594090000000000
H       0.593170000000000     -5.427940000000000      2.833750000000000
H       1.787190000000000     -4.163210000000000      3.272870000000000
C      -5.489200000000000     -3.597450000000000      3.595450000000000
C      -5.431170000000000     -3.690770000000000      2.224920000000000
C      -4.199410000000000     -4.222220000000000      1.902070000000000
C      -3.526510000000000     -4.451650000000000      3.035060000000000
N      -4.293250000000000     -4.071060000000000      4.154260000000000
C      -2.124340000000000     -4.991870000000000      3.136080000000000
N      -2.095170000000000     -6.461770000000000      3.262270000000000
C      -1.839530000000000     -7.023340000000000      4.619240000000000
H      -6.209490000000000     -3.395710000000000      1.533880000000000
H      -6.323170000000000     -3.216860000000000      4.165800000000000
H      -3.865000000000000     -4.410780000000000      0.898660000000000
H      -1.563360000000000     -4.446990000000000      3.914480000000000
H      -1.597790000000000     -4.733040000000000      2.204390000000000
C      -2.965270000000000     -6.614890000000000      5.585680000000000
C      -1.781870000000000     -8.559460000000000      4.551610000000000
C      -0.466170000000000     -6.580650000000000      5.173330000000000
H      -3.950810000000000     -6.945430000000000      5.189130000000000
H      -2.814880000000000     -7.071430000000000      6.586260000000000
H      -2.983660000000000     -5.517550000000000      5.726940000000000
H      -0.984830000000000     -8.898050000000000      3.856490000000000
H      -1.570610000000000     -8.989220000000000      5.555350000000000
H      -2.732740000000000     -8.990399999999999      4.233590000000000
H       0.346150000000000     -6.923540000000000      4.498720000000000
H      -0.378140000000000     -5.489000000000000      5.318250000000000
H      -0.289100000000000     -7.043450000000000      6.166810000000000
