170

Na      0.225650000000000     -0.050260000000000      0.286030000000000
C      -2.219230000000000      1.429220000000000      1.585470000000000
C      -0.689700000000000      0.883760000000000      3.286280000000000
O      -1.123490000000000      0.623730000000000      1.969030000000000
C      -1.753970000000000      2.743000000000000      0.963630000000000
C      -1.406300000000000     -0.034730000000000      4.267680000000000
H      -2.787250000000000      0.869950000000000      0.813680000000000
H      -2.929360000000000      1.610440000000000      2.420740000000000
H       0.399610000000000      0.665870000000000      3.332250000000000
H      -0.802850000000000      1.951720000000000      3.576760000000000
H      -1.235000000000000     -1.096860000000000      3.990070000000000
H      -1.016300000000000      0.137630000000000      5.291920000000000
H      -2.496600000000000      0.168890000000000      4.258940000000000
H      -1.085380000000000      2.547540000000000      0.099900000000000
H      -2.637890000000000      3.311240000000000      0.604880000000000
H      -1.212780000000000      3.360990000000000      1.708430000000000
C       2.602070000000000     -1.738310000000000     -1.022360000000000
C       1.903900000000000     -2.736270000000000      0.978120000000000
O       1.908600000000000     -1.565820000000000      0.194290000000000
C       1.700450000000000     -2.326730000000000     -2.106100000000000
C       1.003210000000000     -2.497610000000000      2.185900000000000
H       2.914060000000000     -0.728000000000000     -1.362250000000000
H       3.536680000000000     -2.328370000000000     -0.899660000000000
H       1.490210000000000     -3.600810000000000      0.417880000000000
H       2.929200000000000     -2.961830000000000      1.342540000000000
H      -0.033350000000000     -2.269770000000000      1.856050000000000
H       0.980820000000000     -3.399070000000000      2.832890000000000
H       1.381360000000000     -1.638120000000000      2.779170000000000
H       0.786270000000000     -1.708910000000000     -2.223100000000000
H       2.245610000000000     -2.338120000000000     -3.073070000000000
H       1.406390000000000     -3.366070000000000     -1.857650000000000
C       2.448120000000000      2.114140000000000     -0.318530000000000
C       0.957830000000000      2.230190000000000     -2.132180000000000
O       1.315990000000000      1.549420000000000     -0.948490000000000
C       2.031990000000000      3.164120000000000      0.706440000000000
C       1.637270000000000      1.596070000000000     -3.340200000000000
H       2.975580000000000      1.297360000000000      0.219240000000000
H       3.180900000000000      2.532620000000000     -1.043950000000000
H      -0.140390000000000      2.129970000000000     -2.256940000000000
H       1.162580000000000      3.322830000000000     -2.082350000000000
H       1.381560000000000      0.517160000000000     -3.401940000000000
H       1.290350000000000      2.098800000000000     -4.266860000000000
H       2.738750000000000      1.701710000000000     -3.263860000000000
H       1.352010000000000      2.715100000000000      1.461490000000000
H       2.933780000000000      3.551520000000000      1.225740000000000
H       1.515220000000000      4.010340000000000      0.208880000000000
C      -1.961030000000000     -0.448500000000000     -2.343040000000000
C      -2.350300000000000     -1.771660000000000     -0.440030000000000
O      -1.546740000000000     -0.769640000000000     -1.031420000000000
C      -2.977380000000000      0.688570000000000     -2.328910000000000
C      -1.788370000000000     -3.160190000000000     -0.724770000000000
H      -1.064970000000000     -0.106490000000000     -2.901790000000000
H      -2.352760000000000     -1.328480000000000     -2.899420000000000
H      -2.331480000000000     -1.612430000000000      0.659430000000000
H      -3.418150000000000     -1.702960000000000     -0.744430000000000
H      -0.743600000000000     -3.229810000000000     -0.362980000000000
H      -2.397940000000000     -3.923030000000000     -0.196590000000000
H      -1.807450000000000     -3.374920000000000     -1.812360000000000
H      -2.554670000000000      1.577650000000000     -1.815680000000000
H      -3.233240000000000      0.968130000000000     -3.372280000000000
H      -3.903520000000000      0.376290000000000     -1.804740000000000
Na     -4.923260000000000    -16.218589999999999      6.693520000000000
C      -1.847970000000000    -14.553789999999999      6.249180000000000
C      -3.003660000000000    -14.554320000000001      4.248700000000000
O      -3.031480000000000    -14.956320000000000      5.599230000000000
C      -1.920460000000000    -15.005640000000000      7.701040000000000
C      -4.298030000000000    -15.008770000000000      3.589870000000000
H      -0.956830000000000    -15.032970000000001      5.783660000000000
H      -1.746730000000000    -13.444680000000000      6.238870000000000
H      -2.945030000000000    -13.445169999999999      4.164750000000000
H      -2.154920000000000    -15.032209999999999      3.708140000000000
H      -5.167660000000000    -14.546709999999999      4.104340000000000
H      -4.311680000000000    -14.708480000000000      2.523030000000000
H      -4.387720000000000    -16.114310000000000      3.653230000000000
H      -2.020380000000000    -16.111239999999999      7.749670000000000
H      -0.999570000000000    -14.702620000000000      8.241709999999999
H      -2.799870000000000    -14.543380000000001      8.198750000000000
Mg      2.127310000000000    -10.650790000000001     -1.072200000000000
C      -0.024850000000000     -9.280630000000000     -2.064920000000000
C      -2.039190000000000     -8.448259999999999     -1.229780000000000
O      -0.693070000000000     -8.750529999999999     -0.936360000000000
C       0.335680000000000     -8.237060000000000     -3.097530000000000
C      -2.861580000000000     -8.536370000000000      0.050530000000000
H      -0.887340000000000    -11.125740000000000     -0.562260000000000
H      -0.524940000000000    -10.166530000000000     -2.511800000000000
H      -2.098670000000000     -7.411710000000000     -1.622170000000000
H      -2.493480000000000     -9.156140000000001     -1.958970000000000
H      -2.453830000000000     -7.846630000000000      0.819810000000000
H      -3.914410000000000     -8.256200000000000     -0.163130000000000
H      -2.846640000000000     -9.571109999999999      0.453170000000000
H       0.866360000000000     -7.398640000000000     -2.612280000000000
H       0.998370000000000     -8.707599999999999     -3.852850000000000
H      -0.582410000000000     -7.863270000000000     -3.590450000000000
H       2.964390000000000    -12.314080000000001     -3.046160000000000
C       4.732920000000000    -11.051310000000001     -2.967290000000000
C       3.208160000000000    -11.242929999999999     -2.904580000000000
C       5.474400000000000    -11.773470000000000     -1.836350000000000
H       5.094130000000000    -11.441800000000001     -3.944060000000000
H       4.963520000000000     -9.974259999999999     -2.935620000000000
H       5.125100000000000    -11.387160000000000     -0.858050000000000
H       5.266710000000000    -12.860469999999999     -1.895850000000000
C       6.989920000000000    -11.585129999999999     -1.929060000000000
H       2.752310000000000    -10.665039999999999     -3.736470000000000
H       7.372750000000000    -11.991400000000001     -2.889390000000000
H       7.265790000000000    -10.513140000000000     -1.851890000000000
H       7.483750000000000    -12.132090000000000     -1.097250000000000
C       2.631020000000000    -13.327859999999999      0.009350000000000
C       2.246640000000000    -14.402970000000000      0.769150000000000
C       1.028520000000000    -14.077360000000001      1.313430000000000
C       0.711500000000000    -12.817140000000000      0.852040000000000
N       1.712600000000000    -12.356019999999999      0.052280000000000
C      -0.576910000000000    -12.122920000000001      1.190550000000000
N      -1.396420000000000    -11.820010000000000      0.008270000000000
C      -1.887060000000000    -12.919540000000000     -0.863630000000000
H       2.797810000000000    -15.319680000000000      0.902480000000000
H       3.539370000000000    -13.258970000000000     -0.558680000000000
H       0.427370000000000    -14.698060000000000      1.963530000000000
H      -1.172090000000000    -12.732590000000000      1.903180000000000
H      -0.360300000000000    -11.178490000000000      1.727960000000000
C      -2.507090000000000    -14.061260000000001     -0.036390000000000
C      -2.983880000000000    -12.331210000000000     -1.772880000000000
C      -0.772070000000000    -13.472500000000000     -1.783870000000000
H      -3.319240000000000    -13.665210000000000      0.608410000000000
H      -2.929780000000000    -14.842570000000000     -0.703310000000000
H      -1.747490000000000    -14.550850000000001      0.605960000000000
H      -2.575260000000000    -11.512040000000001     -2.400500000000000
H      -3.392070000000000    -13.108790000000001     -2.454940000000000
H      -3.819710000000000    -11.921099999999999     -1.166780000000000
H      -0.297340000000000    -12.650410000000001     -2.362210000000000
H       0.012140000000000    -14.011440000000000     -1.228860000000000
H      -1.189530000000000    -14.207020000000000     -2.503430000000000
Mg      5.132740000000000     -9.361840000000001      0.359260000000000
H       6.998490000000000    -11.053830000000000      1.215540000000000
C       5.685250000000000    -10.933669999999999      2.928060000000000
C       6.455130000000000    -10.282290000000000      1.800980000000000
C       4.598380000000000    -11.836580000000000      2.352870000000000
H       6.384710000000000    -11.516610000000000      3.565030000000000
H       5.223690000000000    -10.142090000000000      3.550710000000000
H       3.946110000000000    -11.241040000000000      1.684150000000000
H       5.053840000000000    -12.649970000000000      1.747740000000000
C       3.755320000000000    -12.432110000000000      3.472360000000000
H       7.194690000000000     -9.555940000000000      2.199640000000000
H       4.389110000000000    -13.058299999999999      4.133610000000000
H       3.282100000000000    -11.622529999999999      4.068300000000000
H       2.953360000000000    -13.062360000000000      3.047190000000000
C       6.435620000000000     -5.751850000000000     -0.141130000000000
C       7.023500000000000     -6.725360000000000     -0.916090000000000
C       6.011580000000000     -7.512940000000000     -1.421080000000000
C       4.848100000000000     -7.050680000000000     -0.955240000000000
N       5.042250000000000     -5.915950000000000     -0.144940000000000
C       3.518230000000000     -7.712720000000000     -1.162260000000000
N       3.213380000000000     -8.573919999999999     -0.008250000000000
C       2.490660000000000     -8.027419999999999      1.168050000000000
H       8.084730000000000     -6.861350000000000     -1.073110000000000
H       6.959560000000000     -4.984470000000000      0.407830000000000
H       6.154760000000000     -8.390639999999999     -2.028580000000000
H       3.606620000000000     -8.393640000000000     -2.032150000000000
H       2.730190000000000     -6.994590000000000     -1.444740000000000
C       1.599990000000000     -6.810460000000000      0.828570000000000
C       1.568390000000000     -9.136260000000000      1.705210000000000
C       3.484950000000000     -7.650290000000000      2.268770000000000
H       0.873090000000000     -7.064220000000000      0.030930000000000
H       1.023040000000000     -6.486280000000000      1.720950000000000
H       2.211960000000000     -5.949120000000000      0.494630000000000
H       2.132760000000000    -10.048340000000000      1.970440000000000
H       1.021220000000000     -8.802770000000001      2.613540000000000
H       0.824830000000000     -9.414820000000001      0.934830000000000
H       4.074320000000000     -8.536149999999999      2.560110000000000
H       4.182270000000000     -6.865800000000000      1.934070000000000
H       2.949510000000000     -7.275840000000000      3.166840000000000
