170

Na      0.151540000000000     -0.282070000000000      0.202050000000000
C       2.501970000000000      0.254160000000000     -1.818870000000000
C       3.208230000000000     -1.355900000000000     -0.258660000000000
O       2.286870000000000     -0.327540000000000     -0.549470000000000
C       1.725180000000000     -0.483590000000000     -2.905280000000000
C       4.414110000000000     -0.786310000000000      0.476320000000000
H       2.121640000000000      1.295650000000000     -1.775110000000000
H       3.580280000000000      0.329630000000000     -2.077640000000000
H       2.700790000000000     -2.085710000000000      0.409160000000000
H       3.519410000000000     -1.928260000000000     -1.160730000000000
H       4.084110000000000     -0.265030000000000      1.400350000000000
H       5.105190000000000     -1.608980000000000      0.752680000000000
H       4.952960000000000     -0.065080000000000     -0.171700000000000
H       0.643940000000000     -0.508940000000000     -2.657190000000000
H       1.854780000000000      0.046500000000000     -3.872170000000000
H       2.095860000000000     -1.522750000000000     -3.016730000000000
C      -2.178870000000000     -0.649930000000000      2.371110000000000
C      -0.096460000000000     -0.497110000000000      3.430450000000000
O      -0.778820000000000     -0.743880000000000      2.222760000000000
C      -2.664530000000000      0.789690000000000      2.214130000000000
C       1.399420000000000     -0.461810000000000      3.134730000000000
H      -2.632290000000000     -1.245740000000000      1.550820000000000
H      -2.538150000000000     -1.103650000000000      3.320890000000000
H      -0.375830000000000      0.486360000000000      3.865470000000000
H      -0.291600000000000     -1.313950000000000      4.158140000000000
H       1.630540000000000      0.345540000000000      2.406810000000000
H       1.970520000000000     -0.274330000000000      4.067670000000000
H       1.725090000000000     -1.431630000000000      2.702290000000000
H      -2.310950000000000      1.211330000000000      1.250730000000000
H      -3.774410000000000      0.807760000000000      2.223150000000000
H      -2.297200000000000      1.425720000000000      3.044120000000000
C      -1.493470000000000     -2.767510000000000     -0.864970000000000
C      -2.318870000000000     -0.923860000000000     -2.064050000000000
O      -1.473020000000000     -1.363220000000000     -1.022690000000000
C      -0.395240000000000     -3.420980000000000     -1.696270000000000
C      -3.702990000000000     -0.590640000000000     -1.521000000000000
H      -1.294900000000000     -2.988950000000000      0.205520000000000
H      -2.486910000000000     -3.213410000000000     -1.095340000000000
H      -1.876920000000000      0.002010000000000     -2.487390000000000
H      -2.381110000000000     -1.647730000000000     -2.907240000000000
H      -3.624810000000000      0.168610000000000     -0.714450000000000
H      -4.333240000000000     -0.181590000000000     -2.337760000000000
H      -4.187390000000000     -1.501390000000000     -1.113160000000000
H       0.596980000000000     -3.011920000000000     -1.409690000000000
H      -0.396630000000000     -4.515010000000000     -1.512430000000000
H      -0.565480000000000     -3.239820000000000     -2.777460000000000
C      -1.038130000000000      2.707080000000000     -1.058840000000000
C       0.804020000000000      2.835780000000000      0.392620000000000
O      -0.109980000000000      1.987530000000000     -0.274000000000000
C      -0.517210000000000      2.890990000000000     -2.479910000000000
C       0.276180000000000      3.229120000000000      1.767220000000000
H      -1.972090000000000      2.109000000000000     -1.104830000000000
H      -1.320640000000000      3.683950000000000     -0.607260000000000
H       1.748100000000000      2.267880000000000      0.535830000000000
H       1.071760000000000      3.736040000000000     -0.204060000000000
H       0.068240000000000      2.321730000000000      2.367950000000000
H       1.037570000000000      3.839400000000000      2.296430000000000
H      -0.657220000000000      3.820370000000000      1.673550000000000
H      -0.286570000000000      1.905200000000000     -2.935340000000000
H      -1.291220000000000      3.396050000000000     -3.094590000000000
H       0.401820000000000      3.511960000000000     -2.479870000000000
Na     -7.009060000000000    -16.922899999999998     -1.944860000000000
C      -4.590740000000000    -16.084800000000001      0.502750000000000
C      -4.014250000000000    -15.085419999999999     -1.497900000000000
O      -4.956130000000000    -15.907030000000001     -0.846440000000000
C      -5.630900000000000    -16.973970000000001      1.169240000000000
C      -4.447150000000000    -14.920070000000001     -2.947270000000000
H      -3.602440000000000    -16.592130000000001      0.582680000000000
H      -4.575560000000000    -15.110239999999999      1.041750000000000
H      -3.978150000000000    -14.074460000000000     -1.031610000000000
H      -3.003950000000000    -15.554740000000001     -1.491010000000000
H      -5.452860000000000    -14.449970000000000     -2.991070000000000
H      -3.726840000000000    -14.277010000000001     -3.491430000000000
H      -4.490790000000000    -15.912179999999999     -3.445290000000000
H      -5.672010000000000    -17.959129999999998      0.656980000000000
H      -5.369360000000000    -17.132840000000002      2.236300000000000
H      -6.632320000000000    -16.496070000000000      1.110240000000000
Mg      3.135870000000000    -11.112629999999999      0.198620000000000
C       2.223650000000000     -8.940849999999999     -1.231040000000000
C       0.154010000000000     -7.949750000000000     -1.656290000000000
O       0.927060000000000     -8.679850000000000     -0.729320000000000
C       3.140600000000000     -7.738600000000000     -1.186830000000000
C      -1.321570000000000     -8.253010000000000     -1.424460000000000
H       0.669000000000000    -10.906280000000001     -1.645280000000000
H       2.231290000000000     -9.447600000000000     -2.220010000000000
H       0.326440000000000     -6.866190000000000     -1.494470000000000
H       0.379690000000000     -8.214390000000000     -2.713700000000000
H      -1.607600000000000     -8.004500000000000     -0.380350000000000
H      -1.940630000000000     -7.649420000000000     -2.121010000000000
H      -1.530830000000000     -9.328180000000000     -1.606970000000000
H       3.130750000000000     -7.297550000000000     -0.173460000000000
H       4.169100000000000     -8.074050000000000     -1.433490000000000
H       2.809720000000000     -6.984680000000000     -1.927460000000000
H       5.212490000000000    -12.148949999999999     -1.216920000000000
C       6.335720000000000    -11.501709999999999      0.528240000000000
C       5.219640000000000    -11.296580000000001     -0.509230000000000
C       6.118150000000000    -12.742500000000000      1.401780000000000
H       7.302050000000000    -11.604950000000001     -0.012640000000000
H       6.405380000000000    -10.604990000000001      1.165100000000000
H       5.160260000000000    -12.646319999999999      1.950150000000000
H       6.080710000000000    -13.643980000000001      0.758150000000000
C       7.249360000000000    -12.940160000000001      2.412610000000000
H       5.441310000000000    -10.368800000000000     -1.078310000000000
H       8.218859999999999    -13.073290000000000      1.887040000000000
H       7.325570000000000    -12.074769999999999      3.102920000000000
H       7.052110000000000    -13.851380000000001      3.017290000000000
C       2.893480000000000    -14.034990000000001      0.044930000000000
C       2.146470000000000    -15.159269999999999     -0.195980000000000
C       0.880760000000000    -14.727309999999999     -0.509210000000000
C       0.910960000000000    -13.348520000000001     -0.458070000000000
N       2.153850000000000    -12.927339999999999     -0.107080000000000
C      -0.283150000000000    -12.493950000000000     -0.782450000000000
N      -0.054570000000000    -11.591160000000000     -1.920190000000000
C       0.264220000000000    -12.145849999999999     -3.262160000000000
H       2.495230000000000    -16.179020000000001     -0.149210000000000
H       3.932300000000000    -14.021390000000000      0.312100000000000
H       0.033020000000000    -15.347690000000000     -0.762010000000000
H      -1.171320000000000    -13.127689999999999     -0.988650000000000
H      -0.556570000000000    -11.889450000000000      0.105020000000000
C      -0.691600000000000    -13.292690000000000     -3.642500000000000
C       0.082130000000000    -11.007910000000001     -4.285720000000000
C       1.733280000000000    -12.622980000000000     -3.357020000000000
H      -1.743770000000000    -12.942100000000000     -3.595250000000000
H      -0.481590000000000    -13.650969999999999     -4.672900000000000
H      -0.572500000000000    -14.159369999999999     -2.961360000000000
H       0.765700000000000    -10.163399999999999     -4.059210000000000
H       0.309420000000000    -11.361240000000000     -5.315280000000000
H      -0.960890000000000    -10.625660000000000     -4.267680000000000
H       2.429110000000000    -11.810219999999999     -3.055420000000000
H       1.935180000000000    -13.509200000000000     -2.734310000000000
H       1.979070000000000    -12.922530000000000     -4.397000000000000
Mg      4.206940000000000    -11.256130000000001      3.584150000000000
H       5.022510000000000    -13.565429999999999      4.626820000000000
C       2.882090000000000    -13.691599999999999      4.889160000000000
C       4.182570000000000    -12.922840000000001      4.966350000000000
C       2.565510000000000    -14.019900000000000      3.433280000000000
H       2.964570000000000    -14.620740000000000      5.493330000000000
H       2.071870000000000    -13.068669999999999      5.316490000000000
H       2.536790000000000    -13.080730000000001      2.846180000000000
H       3.360020000000000    -14.666710000000000      3.002350000000000
C       1.215270000000000    -14.715660000000000      3.327400000000000
H       4.386090000000000    -12.600030000000000      6.009340000000000
H       1.237610000000000    -15.675610000000001      3.883310000000000
H       0.415290000000000    -14.064780000000001      3.740780000000000
H       0.979210000000000    -14.923159999999999      2.267950000000000
C       5.237070000000000     -8.164460000000000      5.666920000000000
C       6.285990000000000     -8.911030000000000      5.170340000000000
C       5.988470000000000     -9.190060000000001      3.855100000000000
C       4.802850000000000     -8.640840000000001      3.615800000000000
N       4.335870000000000     -7.987360000000000      4.761510000000000
C       4.021370000000000     -8.792000000000000      2.338970000000000
N       3.046780000000000     -9.883740000000000      2.482990000000000
C       1.675650000000000     -9.609629999999999      2.982050000000000
H       7.153000000000000     -9.262589999999999      5.717850000000000
H       5.145820000000000     -7.783840000000000      6.669010000000000
H       6.574940000000000     -9.791309999999999      3.184840000000000
H       4.725230000000000     -9.122350000000001      1.550140000000000
H       3.617650000000000     -7.833060000000000      1.971960000000000
C       1.206280000000000     -8.160539999999999      2.716660000000000
C       0.711140000000000    -10.548159999999999      2.234770000000000
C       1.589710000000000     -9.916020000000000      4.478640000000000
H       1.262860000000000     -7.920260000000000      1.635600000000000
H       0.151190000000000     -8.026570000000000      3.037980000000000
H       1.821250000000000     -7.429180000000000      3.279510000000000
H       0.978510000000000    -11.610720000000001      2.377210000000000
H      -0.335690000000000    -10.414090000000000      2.584110000000000
H       0.743600000000000    -10.336729999999999      1.148780000000000
H       1.863490000000000    -10.969150000000001      4.660700000000000
H       2.270450000000000     -9.274740000000000      5.061670000000000
H       0.556290000000000     -9.753530000000000      4.851930000000000
