125

Na      0.000070000000000      2.196470000000000     -0.001350000000000
C      -1.157520000000000     -1.042220000000000     -0.001150000000000
C       1.158410000000000     -1.042020000000000     -0.001830000000000
O       0.000470000000000     -0.239330000000000      0.003080000000000
C      -2.373940000000000     -0.124030000000000      0.001090000000000
C       2.375100000000000     -0.124730000000000      0.001360000000000
H      -1.202130000000000     -1.671890000000000     -0.918760000000000
H      -1.203470000000000     -1.677890000000000      0.912060000000000
H       1.204440000000000     -1.679790000000000      0.910140000000000
H       1.202820000000000     -1.667400000000000     -0.921500000000000
H       2.363130000000000      0.520170000000000      0.906340000000000
H       3.309550000000000     -0.724010000000000     -0.000610000000000
H       2.363050000000000      0.525450000000000     -0.899890000000000
H      -2.361730000000000      0.525950000000000     -0.900280000000000
H      -3.308970000000000     -0.722280000000000     -0.000520000000000
H      -2.361840000000000      0.521130000000000      0.905920000000000
Na     -5.543670000000000    -14.108459999999999     -1.357140000000000
C      -3.137100000000000    -13.276249999999999      1.084730000000000
C      -2.560180000000000    -12.276400000000001     -0.916340000000000
O      -3.501780000000000    -13.097890000000000     -0.264490000000000
C      -4.178240000000000    -14.165640000000000      1.749720000000000
C      -2.994170000000000    -12.111789999999999     -2.365620000000000
H      -2.148990000000000    -13.783860000000001      1.165020000000000
H      -3.122100000000000    -12.301959999999999      1.624200000000000
H      -2.524040000000000    -11.265309999999999     -0.450370000000000
H      -1.549880000000000    -12.745649999999999     -0.909770000000000
H      -4.000110000000000    -11.642110000000001     -2.408950000000000
H      -2.274600000000000    -11.468880000000000     -2.910970000000000
H      -3.038150000000000    -13.104189999999999     -2.863100000000000
H      -4.219280000000000    -15.150410000000001      1.236650000000000
H      -3.918140000000000    -14.325550000000000      2.816950000000000
H      -5.179520000000000    -13.687500000000000      1.689930000000000
Mg      4.590250000000000     -8.294449999999999      0.782830000000000
C       3.673560000000000     -6.141070000000000     -0.644900000000000
C       1.606350000000000     -5.145320000000000     -1.070790000000000
O       2.376920000000000     -5.878060000000000     -0.144150000000000
C       4.591690000000000     -4.940500000000000     -0.602490000000000
C       0.129740000000000     -5.445640000000000     -0.841830000000000
H       2.115840000000000     -8.093209999999999     -1.064010000000000
H       3.681850000000000     -6.648990000000000     -1.633140000000000
H       1.780610000000000     -4.062690000000000     -0.906310000000000
H       1.833330000000000     -5.408800000000000     -2.128210000000000
H      -0.157420000000000     -5.199110000000000      0.202420000000000
H      -0.486420000000000     -4.838370000000000     -1.537710000000000
H      -0.082210000000000     -6.519760000000000     -1.027840000000000
H       4.582180000000000     -4.498150000000000      0.410000000000000
H       5.619430000000000     -5.278240000000000     -0.849110000000000
H       4.260910000000000     -4.187690000000000     -1.344050000000000
H       6.663690000000000     -9.331289999999999     -0.630540000000000
C       7.793440000000000     -8.692560000000000      1.113870000000000
C       6.675270000000000     -8.481249999999999      0.079530000000000
C       7.572920000000000     -9.931469999999999      1.989660000000000
H       8.757379999999999     -8.801010000000000      0.569720000000000
H       7.870370000000000     -7.795640000000000      1.748990000000000
H       6.616880000000000     -9.830480000000000      2.540860000000000
H       7.530760000000000    -10.833330000000000      1.346920000000000
C       8.705660000000000    -10.133400000000000      2.998160000000000
H       6.898900000000000     -7.552250000000000     -0.486830000000000
H       9.674049999999999    -10.268370000000001      2.471060000000000
H       8.785340000000000     -9.269410000000001      3.689720000000000
H       8.507170000000000    -11.044879999999999      3.602110000000000
C       4.347970000000000    -11.212790000000000      0.625730000000000
C       3.603570000000000    -12.338520000000001      0.384760000000000
C       2.336330000000000    -11.909459999999999      0.073970000000000
C       2.363250000000000    -10.530749999999999      0.126070000000000
N       3.605630000000000    -10.106930000000000      0.476040000000000
C       1.167000000000000     -9.679500000000001     -0.198990000000000
N       1.394010000000000     -8.778969999999999     -1.338640000000000
C       1.717510000000000     -9.335200000000000     -2.678770000000000
H       3.955380000000000    -13.357200000000001      0.429420000000000
H       5.387010000000000    -11.196420000000000      0.890880000000000
H       1.489940000000000    -12.531480000000000     -0.178950000000000
H       0.280220000000000    -10.315350000000000     -0.404300000000000
H       0.891390000000000     -9.073890000000000      0.686970000000000
C       0.763150000000000    -10.482870000000000     -3.058920000000000
C       1.538140000000000     -8.198560000000001     -3.704310000000000
C       3.187310000000000     -9.811740000000000     -2.769920000000000
H      -0.289260000000000    -10.132949999999999     -3.011960000000000
H       0.974070000000000    -10.842010000000000     -4.088720000000000
H       0.882760000000000    -11.348380000000001     -2.376370000000000
H       2.220930000000000     -7.353640000000000     -3.476700000000000
H       1.769120000000000     -8.552930000000000     -4.732670000000000
H       0.495100000000000     -7.816380000000000     -3.690030000000000
H       3.882470000000000     -8.998810000000001     -2.467290000000000
H       3.388690000000000    -10.697770000000000     -2.147060000000000
H       3.435670000000000    -10.111990000000000     -3.809040000000000
Mg      5.655680000000000     -8.436470000000000      4.180890000000000
H       6.480210000000000    -10.748670000000001      5.202540000000000
C       4.339750000000000    -10.880990000000001      5.470150000000000
C       5.639180000000000    -10.111070000000000      5.548160000000000
C       4.021380000000000    -11.205050000000000      4.013720000000000
H       4.424950000000000    -11.811940000000000      6.070870000000000
H       3.529510000000000    -10.260450000000001      5.901130000000000
H       3.990950000000000    -10.264340000000001      3.429390000000000
H       4.816210000000000    -11.849360000000001      3.579760000000000
C       2.672010000000000    -11.902620000000001      3.907740000000000
H       5.844210000000000     -9.791660000000000      6.591880000000000
H       2.696350000000000    -12.863560000000000      4.461850000000000
H       1.871270000000000    -11.253860000000000      4.323000000000000
H       2.435250000000000    -12.108720000000000      2.848210000000000
C       6.690440000000000     -5.360100000000000      6.241730000000000
C       7.736730000000000     -6.114460000000000      5.748670000000000
C       7.438790000000000     -6.391220000000000      4.433520000000000
C       6.257620000000000     -5.834550000000000      4.190250000000000
N       5.793970000000000     -5.177080000000000      5.337060000000000
C       5.475300000000000     -5.985890000000000      2.914620000000000
N       4.500430000000000     -7.078160000000000      3.059010000000000
C       3.129440000000000     -6.803360000000000      3.557740000000000
H       8.598730000000000     -6.473650000000000      6.297840000000000
H       6.601190000000000     -4.979870000000000      7.245220000000000
H       8.021920000000000     -6.998910000000000      3.765930000000000
H       6.179140000000000     -6.315940000000000      2.125300000000000
H       5.071460000000000     -5.027160000000000      2.547520000000000
C       2.660380000000000     -5.354500000000000      3.291720000000000
C       2.163400000000000     -7.741980000000000      2.812160000000000
C       3.044650000000000     -7.109410000000000      5.054240000000000
H       2.717690000000000     -5.114560000000000      2.210740000000000
H       1.605020000000000     -5.220700000000000      3.611980000000000
H       3.275300000000000     -4.623220000000000      3.854500000000000
H       2.432200000000000     -8.804600000000001      2.950370000000000
H       1.117820000000000     -7.610580000000000      3.166210000000000
H       2.190880000000000     -7.528140000000000      1.726860000000000
H       3.313920000000000     -8.163869999999999      5.235710000000000
H       3.729810000000000     -6.471200000000000      5.635450000000000
H       2.012650000000000     -6.942570000000000      5.429230000000000
