155

Na     -0.369670000000000     -0.050720000000000      0.034840000000000
C      -0.273550000000000      1.428380000000000     -2.731170000000000
C      -2.511570000000000      0.883020000000000     -2.257250000000000
O      -1.153920000000000      0.623480000000000     -1.973690000000000
C       0.032490000000000      2.742960000000000     -2.018680000000000
C      -3.002740000000000     -0.034910000000000     -3.369370000000000
H       0.678860000000000      0.868990000000000     -2.836340000000000
H      -0.641420000000000      1.608570000000000     -3.764070000000000
H      -3.096350000000000      0.664260000000000     -1.337270000000000
H      -2.706700000000000      1.951070000000000     -2.499710000000000
H      -2.848260000000000     -1.097320000000000     -3.083040000000000
H      -4.084720000000000      0.137540000000000     -3.543990000000000
H      -2.449920000000000      0.169280000000000     -4.309020000000000
H       0.446170000000000      2.548860000000000     -1.007510000000000
H       0.785370000000000      3.310410000000000     -2.605320000000000
H      -0.882930000000000      3.361330000000000     -1.923320000000000
C      -0.425640000000000     -1.737510000000000      2.745740000000000
C      -1.809860000000000     -2.736310000000000      1.141380000000000
O      -1.132500000000000     -1.566070000000000      1.536660000000000
C       0.963530000000000     -2.326860000000000      2.507790000000000
C      -2.405340000000000     -2.497320000000000     -0.242770000000000
H      -0.286760000000000     -0.726640000000000      3.184510000000000
H      -0.999550000000000     -2.326230000000000      3.494430000000000
H      -1.118730000000000     -3.601730000000000      1.064270000000000
H      -2.638220000000000     -2.961130000000000      1.847160000000000
H      -1.601390000000000     -2.269690000000000     -0.975660000000000
H      -2.955150000000000     -3.398240000000000     -0.585960000000000
H      -3.107590000000000     -1.637310000000000     -0.212060000000000
H       1.522400000000000     -1.710260000000000      1.773820000000000
H       1.528330000000000     -2.337300000000000      3.463450000000000
H       0.894920000000000     -3.366700000000000      2.130480000000000
C      -0.958950000000000      2.113270000000000      2.260280000000000
C       1.357120000000000      2.229150000000000      1.876370000000000
O       0.152750000000000      1.548690000000000      1.594760000000000
C      -1.638580000000000      3.163920000000000      1.388080000000000
C       2.063560000000000      1.595600000000000      3.069250000000000
H      -1.688530000000000      1.296420000000000      2.447470000000000
H      -0.697150000000000      2.530970000000000      3.257870000000000
H       2.014330000000000      2.128160000000000      0.987790000000000
H       1.211840000000000      3.321890000000000      2.027940000000000
H       2.245010000000000      0.516540000000000      2.879560000000000
H       3.039600000000000      2.098350000000000      3.231830000000000
H       1.446850000000000      1.701930000000000      3.984980000000000
H      -1.952890000000000      2.715750000000000      0.421390000000000
H      -2.539110000000000      3.551090000000000      1.909780000000000
H      -0.949360000000000      4.010280000000000      1.189800000000000
C       2.998210000000000     -0.447410000000000     -0.544460000000000
C       1.544530000000000     -1.770210000000000     -1.833380000000000
O       1.655220000000000     -0.768230000000000     -0.841840000000000
C       3.495000000000000      0.689120000000000     -1.431980000000000
C       1.510550000000000     -3.158680000000000     -1.204560000000000
H       3.033580000000000     -0.104960000000000      0.510790000000000
H       3.675560000000000     -1.327670000000000     -0.604670000000000
H       0.582580000000000     -1.611280000000000     -2.366240000000000
H       2.341680000000000     -1.701380000000000     -2.606290000000000
H       0.675050000000000     -3.228880000000000     -0.480450000000000
H       1.357830000000000     -3.921110000000000     -1.996880000000000
H       2.462190000000000     -3.373440000000000     -0.677700000000000
H       2.839540000000000      1.578590000000000     -1.323330000000000
H       4.526460000000000      0.968460000000000     -1.131480000000000
H       3.504590000000000      0.376370000000000     -2.495970000000000
Na      0.048170000000000     -6.104630000000000     14.781920000000000
C      -2.429030000000000     -6.867090000000000     12.404270000000000
C      -0.351700000000000     -7.003440000000000     11.405060000000001
O      -1.040610000000000     -6.731770000000000     12.603740000000000
C      -3.133380000000000     -6.572250000000000     13.721030000000001
C       1.140150000000000     -6.847700000000000     11.662559999999999
H      -2.794160000000000     -6.136490000000000     11.647019999999999
H      -2.687940000000000     -7.907120000000000     12.100709999999999
H      -0.534600000000000     -8.049860000000001     11.072279999999999
H      -0.641040000000000     -6.281400000000000     10.607710000000001
H       1.464490000000000     -7.558900000000000     12.452349999999999
H       1.711390000000000     -7.054890000000000     10.733590000000000
H       1.360880000000000     -5.812060000000000     11.999320000000001
H      -2.897800000000000     -5.538570000000000     14.053770000000000
H      -4.232100000000000     -6.669670000000000     13.596760000000000
H      -2.793430000000000     -7.286790000000000     14.501180000000000
Mg     -4.315100000000000     -8.896879999999999      4.807120000000000
H      -7.109400000000000     -8.859690000000001      5.164800000000000
C      -6.487750000000000    -10.901920000000000      4.664610000000000
C      -6.409760000000000     -9.391880000000000      4.488220000000000
C      -6.197880000000000    -11.260590000000001      6.117590000000000
H      -7.485880000000000    -11.290559999999999      4.373150000000000
H      -5.724550000000000    -11.361730000000000      4.002460000000000
H      -5.284310000000000    -10.745030000000000      6.439830000000000
H      -7.027360000000000    -10.900679999999999      6.761490000000000
C      -5.995350000000000    -12.760510000000000      6.296370000000000
H      -6.653070000000000     -9.133270000000000      3.434470000000000
H      -6.903600000000000    -13.314349999999999      5.982650000000000
H      -5.127470000000000    -13.103910000000001      5.690730000000000
H      -5.782830000000000    -12.979080000000000      7.363870000000000
C      -1.185470000000000    -12.730779999999999      2.808460000000000
C      -1.749820000000000    -12.569020000000000      4.059970000000000
C      -2.696710000000000    -11.571289999999999      3.935610000000000
C      -2.672680000000000    -11.178920000000000      2.673250000000000
N      -1.721140000000000    -11.926259999999999      1.959670000000000
C      -3.529930000000000    -10.094020000000000      2.079190000000000
N      -3.037590000000000     -8.770429999999999      2.505620000000000
C      -2.455160000000000     -7.924870000000000      1.439620000000000
H      -1.497760000000000    -13.116600000000000      4.961610000000000
H      -0.401670000000000    -13.427580000000001      2.552940000000000
H      -3.343730000000000    -11.186520000000000      4.697850000000000
H      -4.576280000000000    -10.227880000000001      2.409360000000000
H      -3.566950000000000    -10.208990000000000      0.982960000000000
C      -3.586590000000000     -7.404550000000000      0.536450000000000
C      -1.746550000000000     -6.714040000000000      2.078860000000000
C      -1.373360000000000     -8.680280000000000      0.635320000000000
H      -4.330640000000000     -6.845640000000000      1.146320000000000
H      -3.188290000000000     -6.722260000000000     -0.241790000000000
H      -4.121890000000000     -8.236050000000001      0.036850000000000
H      -0.950670000000000     -7.051890000000000      2.770350000000000
H      -1.275790000000000     -6.075950000000000      1.302510000000000
H      -2.436650000000000     -6.059520000000000      2.630070000000000
H      -0.575840000000000     -9.037500000000000      1.321480000000000
H      -1.765490000000000     -9.551760000000000      0.081490000000000
H      -0.915590000000000     -8.003909999999999     -0.116360000000000
Mg     -1.299730000000000     -8.911780000000000      4.345790000000000
H       1.117970000000000    -10.127879999999999      4.962190000000000
C       1.696280000000000     -8.539450000000000      3.563240000000000
C       0.723220000000000     -9.609900000000000      4.065350000000000
C       2.077270000000000     -7.520540000000000      4.642580000000000
H       2.627210000000000     -9.063319999999999      3.260140000000000
H       1.288200000000000     -8.027390000000000      2.663930000000000
H       2.438910000000000     -8.067280000000000      5.540210000000000
H       2.907810000000000     -6.890330000000000      4.259750000000000
C       0.936430000000000     -6.588880000000000      5.027930000000000
H       0.605440000000000    -10.363470000000000      3.256290000000000
H       0.624300000000000     -5.975090000000000      4.157740000000000
H       0.076590000000000     -7.168850000000000      5.393000000000000
H       1.272920000000000     -5.907420000000000      5.837180000000000
C      -5.997610000000000     -5.338650000000000      6.152650000000000
C      -5.941120000000000     -5.429850000000000      4.782010000000000
C      -4.709250000000000     -5.960030000000000      4.456820000000000
C      -4.034780000000000     -6.190380000000000      5.589210000000000
N      -4.800700000000000     -5.811230000000000      6.709060000000000
C      -2.633980000000000     -6.733860000000000      5.693290000000000
N      -2.610490000000000     -8.204300000000000      5.819760000000000
C      -2.356860000000000     -8.765779999999999      7.177440000000000
H      -6.721160000000000     -5.135160000000000      4.092730000000000
H      -6.830900000000000     -4.960780000000000      6.725440000000000
H      -4.378450000000000     -6.147740000000000      3.452260000000000
H      -2.080210000000000     -6.191900000000000      6.478400000000000
H      -2.099650000000000     -6.472750000000000      4.767030000000000
C      -3.483090000000000     -8.355770000000000      8.142450000000000
C      -2.298860000000000    -10.302400000000000      7.113510000000000
C      -0.982970000000000     -8.324050000000000      7.731110000000000
H      -4.468180000000000     -8.689290000000000      7.747080000000000
H      -3.331810000000000     -8.808560000000000      9.144480000000000
H      -3.503160000000000     -7.258280000000000      8.280390000000001
H      -1.501000000000000    -10.643350000000000      6.420570000000000
H      -2.088550000000000    -10.729050000000001      8.118819999999999
H      -3.248350000000000    -10.736060000000000      6.797020000000000
H      -0.171480000000000     -8.669150000000000      7.056460000000000
H      -0.892170000000000     -7.232620000000000      7.874670000000000
H      -0.806590000000000     -8.785530000000000      8.725220000000000
