230

Na      0.144380000000000     -0.050210000000000     -0.355400000000000
C       2.491690000000000      1.428340000000000      1.110420000000000
C       3.200270000000000      0.882870000000000     -1.064710000000000
O       2.275920000000000      0.623360000000000     -0.030690000000000
C       1.721570000000000      2.742890000000000      1.019140000000000
C       4.408900000000000     -0.035180000000000     -0.934080000000000
H       2.106580000000000      0.868970000000000      1.987830000000000
H       3.570130000000000      1.608600000000000      1.308260000000000
H       2.695860000000000      0.664200000000000     -2.031120000000000
H       3.507880000000000      1.950920000000000     -1.112450000000000
H       4.083630000000000     -1.097590000000000     -0.943480000000000
H       5.101100000000000      0.137290000000000     -1.783790000000000
H       4.946260000000000      0.169000000000000      0.014500000000000
H       0.639040000000000      2.548740000000000      0.871830000000000
H       1.853150000000000      3.310400000000000      1.964450000000000
H       2.096660000000000      3.361250000000000      0.178650000000000
C      -2.174330000000000     -1.736440000000000     -1.759030000000000
C      -0.093100000000000     -2.736300000000000     -2.155410000000000
O      -0.773640000000000     -1.565550000000000     -1.766890000000000
C      -2.663050000000000     -2.325420000000000     -0.436840000000000
C       1.403610000000000     -2.498650000000000     -1.978950000000000
H      -2.623750000000000     -0.725620000000000     -1.858460000000000
H      -2.536020000000000     -2.325070000000000     -2.630330000000000
H      -0.372800000000000     -3.601390000000000     -1.518260000000000
H      -0.289980000000000     -2.960950000000000     -3.225720000000000
H       1.636280000000000     -2.270860000000000     -0.916360000000000
H       1.975310000000000     -3.400150000000000     -2.283070000000000
H       1.728450000000000     -1.638880000000000     -2.602730000000000
H      -2.307060000000000     -1.708800000000000      0.414060000000000
H      -3.773110000000000     -2.335830000000000     -0.425700000000000
H      -2.301970000000000     -3.365200000000000     -0.307080000000000
C      -1.488480000000000      2.113380000000000     -1.978900000000000
C      -2.314050000000000      2.229260000000000      0.218820000000000
O      -1.467980000000000      1.548800000000000     -0.683390000000000
C      -0.393280000000000      3.163970000000000     -2.131370000000000
C      -3.700310000000000      1.595680000000000      0.234190000000000
H      -1.285820000000000      1.296540000000000     -2.704340000000000
H      -2.483310000000000      2.531110000000000     -2.250970000000000
H      -1.873110000000000      2.128280000000000      1.232270000000000
H      -2.372700000000000      3.321980000000000      0.017190000000000
H      -3.626720000000000      0.516640000000000      0.486200000000000
H      -4.329150000000000      2.098420000000000      0.998160000000000
H      -4.184990000000000      1.701960000000000     -0.757770000000000
H       0.601020000000000      2.715750000000000     -1.920220000000000
H      -0.394810000000000      3.551140000000000     -3.172100000000000
H      -0.566150000000000      4.010320000000000     -1.435330000000000
C      -1.037880000000000     -0.447890000000000      2.850470000000000
C       0.805160000000000     -1.771090000000000      2.235940000000000
O      -0.108950000000000     -0.769070000000000      1.836060000000000
C      -0.517670000000000      0.688840000000000      3.724320000000000
C       0.277900000000000     -3.159820000000000      1.891890000000000
H      -1.969430000000000     -0.105330000000000      2.353510000000000
H      -1.324470000000000     -1.328020000000000      3.467300000000000
H       1.747610000000000     -1.611900000000000      1.669410000000000
H       1.075850000000000     -1.702170000000000      3.312760000000000
H       0.068610000000000     -3.229950000000000      0.806300000000000
H       1.040470000000000     -3.922400000000000      2.155490000000000
H      -0.654230000000000     -3.374670000000000      2.452520000000000
H      -0.284110000000000      1.578300000000000      3.102300000000000
H      -1.293650000000000      0.968270000000000      4.467310000000000
H       0.398970000000000      0.376220000000000      4.264690000000000
Na      8.490040000000000    -13.592050000000000     -6.648140000000000
C      11.413650000000001    -14.636860000000000     -7.327560000000000
C      10.801580000000000    -12.997790000000000     -8.893620000000000
O      10.351480000000000    -13.930260000000001     -7.934240000000000
C      11.926000000000000    -13.901560000000000     -6.093330000000000
C      10.801190000000000    -13.634530000000000    -10.275940000000000
H      11.015900000000000    -15.620580000000000     -7.002090000000000
H      12.242039999999999    -14.857329999999999     -8.036479999999999
H      10.091049999999999    -12.142920000000000     -8.895720000000001
H      11.799930000000000    -12.568160000000001     -8.651949999999999
H       9.784200000000000    -14.010719999999999    -10.517820000000000
H      11.099280000000000    -12.881940000000000    -11.034640000000000
H      11.516700000000000    -14.481940000000000    -10.306179999999999
H      11.095490000000000    -13.729500000000000     -5.377720000000000
H      12.704810000000000    -14.516159999999999     -5.595390000000000
H      12.369130000000000    -12.924609999999999     -6.375020000000000
C       5.422620000000000    -12.729120000000000     -6.043860000000000
C       5.757510000000000    -13.042050000000000     -8.336779999999999
O       6.369560000000000    -12.818600000000000     -7.086860000000000
C       5.078020000000000    -14.108190000000000     -5.486220000000000
C       6.849940000000000    -13.305280000000000     -9.367190000000001
H       5.892500000000000    -12.143150000000000     -5.225580000000000
H       4.508700000000000    -12.168600000000000     -6.342450000000000
H       5.096090000000000    -13.934910000000000     -8.316150000000000
H       5.186020000000000    -12.142500000000000     -8.652250000000000
H       7.442970000000000    -14.200460000000000     -9.081040000000000
H       6.397770000000000    -13.481360000000000    -10.365460000000001
H       7.533380000000000    -12.432040000000001     -9.430030000000000
H       6.001830000000000    -14.637470000000000     -5.174780000000000
H       4.420520000000000    -13.995039999999999     -4.601490000000000
H       4.545740000000000    -14.721050000000000     -6.240950000000000
C       8.775980000000001    -11.028589999999999     -4.780460000000000
C       8.982020000000000    -12.849740000000001     -3.315280000000000
O       8.696610000000000    -12.432169999999999     -4.633650000000000
C      10.173909999999999    -10.614900000000000     -5.225490000000000
C       7.696110000000000    -12.957670000000000     -2.506030000000000
H       8.055050000000000    -10.730250000000000     -5.571170000000000
H       8.472080000000000    -10.478600000000000     -3.861010000000000
H       9.448200000000000    -13.855420000000001     -3.373210000000000
H       9.724130000000001    -12.196730000000001     -2.802170000000000
H       6.988120000000000    -13.650060000000000     -3.008180000000000
H       7.925830000000000    -13.349959999999999     -1.493690000000000
H       7.217780000000000    -11.961399999999999     -2.407770000000000
H      10.437430000000001    -11.126139999999999     -6.175720000000000
H      10.201700000000001     -9.517260000000000     -5.389550000000000
H      10.922010000000000    -10.880480000000000     -4.450170000000000
C       8.359810000000000    -16.544440000000002     -4.774280000000000
C       8.228980000000000    -16.771770000000000     -7.105500000000000
O       8.368589999999999    -15.876749999999999     -6.019540000000000
C       9.777390000000000    -16.913370000000000     -4.353250000000000
C       6.760160000000000    -16.953640000000000     -7.467930000000000
H       7.940260000000000    -15.845770000000000     -4.020550000000000
H       7.697330000000000    -17.439219999999999     -4.766220000000000
H       8.750780000000001    -16.327390000000001     -7.979670000000000
H       8.716889999999999    -17.755610000000001     -6.922040000000000
H       6.303490000000000    -15.971040000000000     -7.700390000000000
H       6.675540000000000    -17.607630000000000     -8.360790000000000
H       6.205610000000000    -17.418690000000002     -6.627450000000000
H      10.413980000000000    -16.004709999999999     -4.318100000000000
H       9.755810000000000    -17.375869999999999     -3.344520000000000
H      10.219340000000001    -17.635909999999999     -5.069690000000000
Mg      0.241900000000000     -8.976410000000000     -0.531700000000000
C      -2.679140000000000     -9.127960000000000      0.346600000000000
C      -1.661580000000000    -10.567220000000001      1.905810000000000
O      -1.508610000000000     -9.808680000000001      0.733640000000000
C      -2.658810000000000     -7.690930000000000      0.840400000000000
C      -0.268770000000000    -10.867680000000000      2.441860000000000
H      -2.703830000000000     -9.113790000000000     -0.762480000000000
H      -3.601390000000000     -9.630450000000000      0.674780000000000
H      -2.230930000000000    -10.024730000000000      2.693060000000000
H      -2.152170000000000    -11.527300000000000      1.663320000000000
H       0.236570000000000     -9.922960000000000      2.729640000000000
H      -0.329510000000000    -11.537409999999999      3.324040000000000
H       0.345480000000000    -11.356949999999999      1.657670000000000
H      -1.761440000000000     -7.167040000000000      0.448220000000000
H      -3.568460000000000     -7.166280000000000      0.478120000000000
H      -2.645980000000000     -7.668890000000000      1.949160000000000
H       1.665350000000000     -7.584830000000000      1.387920000000000
C       3.364610000000000     -8.005269999999999      0.058530000000000
C       2.182920000000000     -8.439620000000000      0.905090000000000
C       2.946590000000000     -6.999630000000000     -1.021570000000000
H       4.115600000000000     -7.546480000000000      0.730810000000000
H       3.805780000000000     -8.904809999999999     -0.422440000000000
H       2.217870000000000     -7.459780000000000     -1.712930000000000
H       2.471590000000000     -6.110200000000000     -0.554170000000000
C       4.154440000000000     -6.551910000000000     -1.834780000000000
H       2.461400000000000     -9.218130000000000      1.642480000000000
H       4.901170000000000     -6.073900000000000     -1.166720000000000
H       4.620100000000000     -7.424010000000000     -2.342560000000000
H       3.838910000000000     -5.817010000000000     -2.605090000000000
C      -0.274500000000000     -6.843400000000000     -2.626680000000000
C      -0.511660000000000     -6.705920000000000     -3.976510000000000
C      -0.541010000000000     -7.985100000000000     -4.505940000000000
C      -0.305900000000000     -8.846450000000001     -3.454930000000000
N      -0.140830000000000     -8.143739999999999     -2.329720000000000
C      -0.252670000000000    -10.345110000000000     -3.519850000000000
N       0.293940000000000    -10.929610000000000     -2.278740000000000
C       1.654560000000000    -11.504870000000000     -2.392430000000000
H      -0.646040000000000     -5.775670000000000     -4.509430000000000
H      -0.194200000000000     -6.046030000000000     -1.898930000000000
H      -0.700130000000000     -8.254580000000001     -5.539810000000000
H      -1.279820000000000    -10.700550000000000     -3.655610000000000
H       0.292410000000000    -10.669119999999999     -4.422550000000000
C       2.641440000000000    -10.496250000000000     -3.013320000000000
C       2.171240000000000    -11.840980000000000     -0.980270000000000
C       1.610580000000000    -12.810610000000000     -3.209810000000000
H       2.652120000000000     -9.574009999999999     -2.405330000000000
H       3.667690000000000    -10.917460000000000     -3.040070000000000
H       2.373310000000000    -10.218880000000000     -4.050100000000000
H       1.536190000000000    -12.589800000000000     -0.486980000000000
H       3.198400000000000    -12.265540000000000     -1.025940000000000
H       2.194300000000000    -10.939539999999999     -0.337080000000000
H       0.907550000000000    -13.533400000000000     -2.744510000000000
H       1.281550000000000    -12.635820000000001     -4.251680000000000
H       2.613710000000000    -13.280290000000001     -3.247470000000000
Mg     -1.771540000000000    -12.407360000000001     -1.293510000000000
C      -2.478860000000000    -14.926270000000001     -2.944730000000000
C      -1.480830000000000    -13.705040000000000     -4.725530000000000
O      -1.857200000000000    -13.727069999999999     -3.363020000000000
C      -1.508940000000000    -16.099580000000000     -2.850370000000000
C      -2.643620000000000    -13.890750000000001     -5.699070000000000
H      -2.885120000000000    -14.729279999999999     -1.935620000000000
H      -3.370520000000000    -15.182470000000000     -3.546210000000000
H      -1.083200000000000    -12.689140000000000     -4.918900000000000
H      -0.644900000000000    -14.405120000000000     -4.927130000000000
H      -3.464350000000000    -13.182860000000000     -5.458240000000000
H      -2.286950000000000    -13.693160000000001     -6.730020000000000
H      -3.023100000000000    -14.930930000000000     -5.670910000000000
H      -0.646830000000000    -15.847840000000000     -2.205170000000000
H      -2.036930000000000    -16.971010000000000     -2.410090000000000
H      -1.136710000000000    -16.380739999999999     -3.854080000000000
H       0.027390000000000    -14.349090000000000     -0.705530000000000
C      -1.458770000000000    -15.042780000000000      0.696300000000000
C      -0.699920000000000    -13.905980000000000      0.000810000000000
C      -0.529030000000000    -16.144410000000001      1.235450000000000
H      -2.065840000000000    -14.641590000000001      1.531900000000000
H      -2.133400000000000    -15.528790000000001     -0.030870000000000
H      -1.163660000000000    -16.937090000000001      1.687600000000000
H       0.038710000000000    -16.598900000000000      0.393790000000000
C       0.457050000000000    -15.657200000000000      2.295820000000000
H      -0.129910000000000    -13.355530000000000      0.769080000000000
H       1.164150000000000    -14.915290000000001      1.870830000000000
H      -0.087460000000000    -15.205909999999999      3.151290000000000
H       1.051030000000000    -16.520340000000001      2.664910000000000
C      -6.068930000000000    -10.967680000000000      2.492940000000000
C      -7.029360000000000    -11.892200000000001      2.127060000000000
C      -6.450520000000000    -12.726260000000000      1.189100000000000
C      -5.218530000000000    -12.283160000000001      1.021220000000000
N      -4.978260000000000    -11.182460000000001      1.854720000000000
C      -4.211150000000000    -12.851599999999999      0.080080000000000
N      -3.756490000000000    -11.861210000000000     -0.898540000000000
C      -4.699840000000000    -11.476100000000001     -2.001030000000000
H      -8.044660000000000    -11.943650000000000      2.493030000000000
H      -6.183460000000000    -10.164820000000001      3.204280000000000
H      -6.902970000000000    -13.559570000000001      0.673220000000000
H      -4.548450000000000    -13.783480000000001     -0.413520000000000
H      -3.347820000000000    -13.128950000000000      0.692690000000000
C      -5.658450000000000    -10.373320000000000     -1.508280000000000
C      -3.917730000000000    -10.882339999999999     -3.183400000000000
C      -5.524680000000000    -12.665910000000000     -2.545560000000000
H      -5.087650000000000     -9.485180000000000     -1.168180000000000
H      -6.333730000000000    -10.044160000000000     -2.326760000000000
H      -6.300560000000000    -10.715970000000000     -0.680430000000000
H      -3.251150000000000    -11.642970000000000     -3.622960000000000
H      -4.611930000000000    -10.555870000000001     -3.991690000000000
H      -3.329000000000000     -9.995229999999999     -2.873620000000000
H      -4.859540000000000    -13.453020000000000     -2.948870000000000
H      -6.178960000000000    -13.103479999999999     -1.766020000000000
H      -6.193040000000000    -12.332140000000001     -3.369030000000000
