110

Na     -0.001210000000000      2.187740000000000      0.000650000000000
C       0.578170000000000     -1.042760000000000      1.003720000000000
C      -0.580740000000000     -1.042450000000000     -1.002650000000000
O       0.002380000000000     -0.240470000000000     -0.001550000000000
C       1.188160000000000     -0.123490000000000      2.055630000000000
C      -1.186310000000000     -0.123760000000000     -2.057280000000000
H      -0.193940000000000     -1.672270000000000      1.501610000000000
H       1.392170000000000     -1.678460000000000      0.587250000000000
H       0.186060000000000     -1.679630000000000     -1.498980000000000
H      -1.399110000000000     -1.668850000000000     -0.582160000000000
H      -0.396690000000000      0.521620000000000     -2.499000000000000
H      -1.655400000000000     -0.721710000000000     -2.866420000000000
H      -1.960750000000000      0.526370000000000     -1.596020000000000
H       0.401420000000000      0.526670000000000      2.495510000000000
H       1.654670000000000     -0.720670000000000      2.866770000000000
H       1.965450000000000      0.521920000000000      1.592550000000000
Na     -8.759900000000000    -15.667020000000001      1.386760000000000
C      -6.168320000000000    -13.503000000000000      0.386650000000000
C      -5.591420000000000    -14.502480000000000      2.386550000000000
O      -6.579680000000000    -14.406430000000000      1.386620000000000
C      -7.259120000000000    -13.428839999999999     -0.671820000000000
C      -6.071890000000000    -15.487740000000001      3.442650000000000
H      -6.026900000000000    -12.481740000000000      0.807820000000000
H      -5.235310000000000    -13.856700000000000     -0.107180000000000
H      -4.635580000000000    -14.888920000000001      1.964940000000000
H      -5.430560000000000    -13.517730000000000      2.881600000000000
H      -6.240530000000000    -16.484900000000000      2.982220000000000
H      -5.313250000000000    -15.585559999999999      4.247050000000000
H      -7.025890000000000    -15.131600000000001      3.887340000000000
H      -8.208920000000001    -13.078650000000000     -0.213720000000000
H      -6.963470000000000    -12.722270000000000     -1.475270000000000
H      -7.424070000000000    -14.433650000000000     -1.116790000000000
Mg      0.098760000000000    -10.734170000000001      0.603030000000000
H       1.848670000000000    -11.582839999999999      3.331910000000000
C       2.498430000000000    -12.630400000000000      1.509490000000000
C       1.441480000000000    -11.956460000000000      2.371700000000000
C       3.636420000000000    -11.658690000000000      1.188770000000000
H       2.891150000000000    -13.512269999999999      2.056960000000000
H       2.026960000000000    -12.973369999999999      0.562440000000000
H       3.237310000000000    -10.787100000000001      0.630880000000000
H       4.094670000000000    -11.297150000000000      2.134130000000000
C       4.713800000000000    -12.330710000000000      0.344050000000000
H       0.577700000000000    -12.633310000000000      2.541250000000000
H       5.127520000000000    -13.209940000000000      0.882020000000000
H       4.293880000000000    -12.661550000000000     -0.629690000000000
H       5.537600000000000    -11.611670000000000      0.150530000000000
C       1.855390000000000    -11.112310000000001     -1.964310000000000
C       2.526280000000000    -10.379450000000000     -2.927130000000000
C       2.286450000000000     -9.047680000000000     -2.652100000000000
C       1.479040000000000     -9.035050000000000     -1.536540000000000
N       1.215900000000000    -10.281570000000000     -1.122010000000000
C       0.935120000000000     -7.858260000000000     -0.828450000000000
N       1.087970000000000     -8.079010000000000      0.615080000000000
C       2.178830000000000     -7.387450000000000      1.304920000000000
H       3.130460000000000    -10.772309999999999     -3.733470000000000
H       1.853220000000000    -12.189600000000000     -1.873800000000000
H       2.653950000000000     -8.191369999999999     -3.202730000000000
H      -0.139580000000000     -7.880670000000000     -1.054200000000000
H       1.319830000000000     -6.885920000000000     -1.197690000000000
C       1.774650000000000     -5.923780000000000      1.553500000000000
C       2.371770000000000     -8.095760000000000      2.655710000000000
C       3.500990000000000     -7.478980000000000      0.521400000000000
H       0.835070000000000     -5.878200000000000      2.149250000000000
H       2.570990000000000     -5.387520000000000      2.110270000000000
H       1.596910000000000     -5.391490000000000      0.596870000000000
H       2.634280000000000     -9.163150000000000      2.501590000000000
H       3.170720000000000     -7.611450000000000      3.253790000000000
H       1.443090000000000     -8.072990000000001      3.249850000000000
H       3.749070000000000     -8.541650000000001      0.320990000000000
H       3.441110000000000     -6.945890000000000     -0.448010000000000
H       4.326970000000000     -7.027370000000000      1.107590000000000
Mg     -1.335860000000000     -7.700190000000000      0.819650000000000
H      -3.350630000000000     -5.848860000000000      0.186350000000000
C      -1.577780000000000     -5.158230000000000     -0.918690000000000
C      -2.249230000000000     -5.803840000000000      0.299080000000000
C      -1.986960000000000     -5.831960000000000     -2.232980000000000
H      -1.885350000000000     -4.092810000000000     -0.970070000000000
H      -0.474880000000000     -5.195300000000000     -0.784540000000000
H      -1.722100000000000     -6.900650000000000     -2.229290000000000
H      -3.087300000000000     -5.741360000000000     -2.356970000000000
C      -1.296460000000000     -5.187470000000000     -3.431600000000000
H      -2.007680000000000     -5.182550000000000      1.188560000000000
H      -1.539940000000000     -4.105520000000000     -3.486990000000000
H      -0.194890000000000     -5.313310000000000     -3.355760000000000
H      -1.644050000000000     -5.679210000000000     -4.365270000000000
C      -3.748090000000000     -7.070860000000000      3.703110000000000
C      -2.463370000000000     -6.750130000000000      4.097730000000000
C      -1.662180000000000     -7.803410000000000      3.714880000000000
C      -2.447860000000000     -8.681410000000000      3.106490000000000
N      -3.771320000000000     -8.208700000000000      3.102500000000000
C      -1.977090000000000     -9.965980000000000      2.467980000000000
N      -1.719330000000000     -9.758699999999999      1.027850000000000
C      -2.681900000000000    -10.359930000000000      0.084000000000000
H      -2.136050000000000     -5.837760000000000      4.582820000000000
H      -4.624460000000000     -6.460620000000000      3.858440000000000
H      -0.601420000000000     -7.879980000000000      3.850890000000000
H      -2.658410000000000    -10.806530000000000      2.710210000000000
H      -1.004680000000000    -10.227900000000000      2.935530000000000
C      -4.120320000000000     -9.894349999999999      0.362040000000000
C      -2.289990000000000     -9.914569999999999     -1.328990000000000
C      -2.588900000000000    -11.905099999999999      0.136020000000000
H      -4.176960000000000     -8.785710000000000      0.320930000000000
H      -4.810360000000000    -10.315550000000000     -0.400020000000000
H      -4.471200000000000    -10.236580000000000      1.356390000000000
H      -1.255710000000000    -10.224990000000000     -1.570230000000000
H      -2.962410000000000    -10.359130000000000     -2.091560000000000
H      -2.355160000000000     -8.815670000000001     -1.401620000000000
H      -1.559210000000000    -12.249900000000000     -0.101010000000000
H      -2.859060000000000    -12.313770000000000      1.129410000000000
H      -3.269740000000000    -12.360799999999999     -0.611830000000000
