170

Na     -0.073650000000000      0.216730000000000      0.293860000000000
C      -0.130310000000000     -2.649190000000000      1.591390000000000
C      -0.422380000000000     -1.050750000000000      3.290080000000000
O       0.023220000000000     -1.297890000000000      1.974230000000000
C      -1.500220000000000     -2.895860000000000      0.966520000000000
C       0.731250000000000     -1.206340000000000      4.271750000000000
H       0.639460000000000     -2.865410000000000      0.821980000000000
H       0.062070000000000     -3.355250000000000      2.427960000000000
H      -0.782650000000000      0.000180000000000      3.333410000000000
H      -1.288340000000000     -1.685630000000000      3.581950000000000
H       1.562860000000000     -0.524980000000000      3.991330000000000
H       0.386530000000000     -0.953460000000000      5.295470000000000
H       1.103030000000000     -2.251400000000000      4.264310000000000
H      -1.658690000000000     -2.216960000000000      0.103220000000000
H      -1.555370000000000     -3.945020000000000      0.607510000000000
H      -2.306650000000000     -2.731130000000000      1.709660000000000
C       0.203740000000000      3.125500000000000     -1.023070000000000
C       1.413030000000000      3.018660000000000      0.978960000000000
O       0.398740000000000      2.436890000000000      0.192960000000000
C       1.161750000000000      2.633800000000000     -2.106300000000000
C       1.657790000000000      2.117870000000000      2.185210000000000
H      -0.828680000000000      2.897100000000000     -1.362800000000000
H       0.254010000000000      4.229780000000000     -0.900280000000000
H       2.369910000000000      3.098250000000000      0.419920000000000
H       1.092430000000000      4.017490000000000      1.345620000000000
H       1.979560000000000      1.107070000000000      1.853800000000000
H       2.449740000000000      2.549520000000000      2.831870000000000
H       0.724880000000000      2.014880000000000      2.779070000000000
H       1.076830000000000      1.533800000000000     -2.223500000000000
H       0.903670000000000      3.114480000000000     -3.073040000000000
H       2.210300000000000      2.891260000000000     -1.856090000000000
C      -3.062200000000000      1.059700000000000     -0.321640000000000
C      -2.418680000000000     -0.288330000000000     -2.134660000000000
O      -2.006620000000000      0.362290000000000     -0.951530000000000
C      -3.759100000000000      0.173430000000000      0.704890000000000
C      -2.205800000000000      0.616790000000000     -3.341810000000000
H      -2.620150000000000      1.927140000000000      0.213640000000000
H      -3.793700000000000      1.481950000000000     -1.046520000000000
H      -1.785950000000000     -1.191680000000000     -2.258720000000000
H      -3.468970000000000     -0.653450000000000     -2.085890000000000
H      -1.142500000000000      0.931340000000000     -3.401230000000000
H      -2.468640000000000      0.066390000000000     -4.268960000000000
H      -2.845230000000000      1.519930000000000     -3.264880000000000
H      -3.026860000000000     -0.188580000000000      1.457710000000000
H      -4.545910000000000      0.758830000000000      1.225480000000000
H      -4.231820000000000     -0.698820000000000      0.208320000000000
C       1.371090000000000     -1.481110000000000     -2.346450000000000
C       2.710150000000000     -1.157820000000000     -0.443940000000000
O       1.440620000000000     -0.961430000000000     -1.034830000000000
C       0.892430000000000     -2.928410000000000     -2.329770000000000
C       3.629430000000000      0.024290000000000     -0.727550000000000
H       0.629740000000000     -0.875090000000000     -2.907850000000000
H       2.330760000000000     -1.384230000000000     -2.901140000000000
H       2.563720000000000     -1.224120000000000      0.655370000000000
H       3.186130000000000     -2.115610000000000     -0.751080000000000
H       3.164740000000000      0.962240000000000     -0.364500000000000
H       4.595200000000000     -0.121610000000000     -0.200090000000000
H       3.823880000000000      0.116690000000000     -1.815330000000000
H      -0.089330000000000     -3.003240000000000     -1.817040000000000
H       0.780030000000000     -3.293210000000000     -3.372040000000000
H       1.624760000000000     -3.571430000000000     -1.801600000000000
Na     13.074999999999999    -17.266980000000000     -5.382060000000000
C      11.140010000000000    -15.591680000000000     -2.934440000000000
C       9.986269999999999    -15.592110000000000     -4.935100000000000
O      11.168749999999999    -15.997000000000000     -4.283640000000000
C      12.430130000000000    -16.047899999999998     -2.267940000000000
C      10.059530000000001    -16.049689999999998     -6.384460000000000
H      11.085220000000000    -14.482120000000000     -2.854510000000000
H      10.288420000000000    -16.065819999999999     -2.395440000000000
H       9.092710000000000    -16.066330000000001     -4.468800000000000
H       9.887570000000000    -14.482510000000000     -4.928200000000000
H      10.155260000000000    -17.155709999999999     -6.428270000000000
H       9.142469999999999    -15.747420000000000     -6.928620000000000
H      10.940540000000000    -15.591430000000001     -6.882490000000000
H      13.303860000000000    -15.590920000000001     -2.780210000000000
H      12.436930000000000    -15.741960000000001     -1.200890000000000
H      12.516959999999999    -17.154100000000000     -2.326940000000000
Mg      2.970590000000000    -11.385930000000000     -3.238580000000000
C       1.546160000000000    -13.262540000000000     -4.668280000000000
C       1.722160000000000    -15.551069999999999     -5.093460000000000
O       1.966930000000000    -14.516330000000000     -4.166210000000000
C       0.046800000000000    -13.068239999999999     -4.624130000000000
C       2.724580000000000    -16.675719999999998     -4.861920000000000
H       4.025400000000000    -13.625980000000000     -5.082420000000000
H       1.981430000000000    -13.002910000000000     -5.657240000000000
H       0.697620000000000    -15.946450000000000     -4.931870000000000
H       1.838290000000000    -15.222770000000001     -6.150790000000000
H       2.652830000000000    -17.047940000000001     -3.817830000000000
H       2.512690000000000    -17.513829999999999     -5.558610000000000
H       3.759850000000000    -16.318100000000001     -5.044280000000000
H      -0.330360000000000    -13.297120000000000     -3.610760000000000
H      -0.176390000000000    -12.009700000000000     -4.870790000000000
H      -0.440900000000000    -13.731460000000000     -5.364820000000000
H       2.829850000000000     -9.069170000000000     -4.653850000000000
C       1.707610000000000     -8.419980000000001     -2.908670000000000
C       2.088070000000000     -9.489100000000001     -3.946180000000000
C       2.890850000000000     -7.988170000000000     -2.034920000000000
H       1.313940000000000     -7.531330000000000     -3.449460000000000
H       0.896110000000000     -8.808050000000000     -2.271960000000000
H       3.286650000000000     -8.865819999999999     -1.486680000000000
H       3.690230000000000     -7.569690000000000     -2.678550000000000
C       2.496060000000000     -6.909840000000000     -1.024200000000000
H       1.173780000000000     -9.761039999999999     -4.515320000000000
H       2.125960000000000     -6.005460000000000     -1.550850000000000
H       1.708520000000000     -7.276200000000000     -0.333760000000000
H       3.383620000000000     -6.623700000000000     -0.419880000000000
C       5.622680000000000    -10.134890000000000     -3.392240000000000
C       6.969850000000000    -10.219720000000001     -3.633140000000000
C       7.228600000000000    -11.531840000000001     -3.946360000000000
C       6.019440000000000    -12.195060000000000     -3.895230000000000
N       5.033230000000000    -11.329250000000000     -3.544270000000000
C       5.876460000000000    -13.656490000000000     -4.219610000000000
N       4.980360000000000    -13.909970000000000     -5.357360000000000
C       5.301340000000000    -13.356560000000000     -6.699350000000000
H       7.678620000000000     -9.407840000000000     -3.586370000000000
H       5.091470000000000     -9.242039999999999     -3.125070000000000
H       8.189740000000000    -11.955830000000001     -4.199150000000000
H       6.869390000000000    -14.108790000000001     -4.425810000000000
H       5.489670000000000    -14.195570000000000     -3.332150000000000
C       6.772440000000000    -13.610930000000000     -7.079690000000000
C       4.406920000000000    -14.083240000000000     -7.722920000000000
C       4.980010000000000    -11.845760000000000     -6.794230000000000
H       6.994880000000000    -14.697430000000001     -7.032440000000000
H       6.977710000000000    -13.249930000000001     -8.110090000000000
H       7.463470000000000    -13.074460000000000     -6.398550000000000
H       3.333760000000000    -13.913539999999999     -7.496420000000000
H       4.599270000000000    -13.709750000000000     -8.752490000000000
H       4.597410000000000    -15.177650000000000     -7.704870000000000
H       3.928220000000000    -11.649550000000000     -6.492630000000000
H       5.646550000000000    -11.227800000000000     -6.171520000000000
H       5.116530000000000    -11.483140000000001     -7.834210000000000
Mg      2.559490000000000    -10.386649999999999      0.147000000000000
H       4.151560000000000     -8.525790000000001      1.189640000000000
C       5.331010000000000    -10.316450000000000      1.451970000000000
C       4.015040000000000     -9.574500000000000      1.529170000000000
C       5.773610000000000    -10.426510000000000     -0.003900000000000
H       6.094450000000000     -9.780500000000000      2.056140000000000
H       5.196620000000000    -11.329580000000000      1.879310000000000
H       4.974620000000000    -10.920959999999999     -0.591000000000000
H       5.936540000000000     -9.415060000000000     -0.434850000000000
C       7.051250000000000    -11.248030000000000     -0.109780000000000
H       3.633680000000000     -9.559690000000000      2.572150000000000
H       7.871440000000000    -10.748730000000000      0.446130000000000
H       6.887550000000000    -12.266270000000000      0.303610000000000
H       7.348990000000000    -11.348730000000000     -1.169230000000000
C      -0.633000000000000    -11.040179999999999      2.229790000000000
C      -0.511000000000000     -9.758500000000000      1.733170000000000
C      -0.120550000000000     -9.876659999999999      0.417940000000000
C      -0.003250000000000    -11.178070000000000      0.178710000000000
N      -0.335660000000000    -11.909200000000000      1.324440000000000
C       0.518410000000000    -11.779389999999999     -1.098090000000000
N       1.951170000000000    -12.077610000000000     -0.954060000000000
C       2.399360000000000    -13.402110000000000     -0.455000000000000
H      -0.640150000000000     -8.831840000000000      2.280620000000000
H      -0.917040000000000    -11.309570000000001      3.231870000000000
H       0.106820000000000     -9.068140000000000     -0.252340000000000
H       0.452590000000000    -11.004700000000000     -1.886980000000000
H      -0.110210000000000    -12.608520000000000     -1.465040000000000
C       1.379130000000000    -14.533099999999999     -0.720310000000000
C       3.694350000000000    -13.768230000000001     -1.202360000000000
C       2.707640000000000    -13.323410000000001      1.041590000000000
H       1.142740000000000    -14.604210000000000     -1.801340000000000
H       1.790670000000000    -15.513830000000000     -0.399010000000000
H       0.438290000000000    -14.366180000000000     -0.157440000000000
H       4.480920000000000    -13.005459999999999     -1.059970000000000
H       4.101600000000000    -14.741880000000000     -0.853040000000000
H       3.494910000000000    -13.845850000000000     -2.288360000000000
H       3.482770000000000    -12.559770000000000      1.223680000000000
H       1.811860000000000    -13.054570000000000      1.624580000000000
H       3.083600000000000    -14.299670000000001      1.414830000000000
