125

Na      0.000100000000000      2.197590000000000     -0.001380000000000
C      -1.157300000000000     -1.040470000000000     -0.000450000000000
C       1.158140000000000     -1.038790000000000     -0.000490000000000
O       0.000090000000000     -0.236580000000000      0.004090000000000
C      -2.374310000000000     -0.123320000000000      0.001490000000000
C       2.375360000000000     -0.122860000000000      0.002330000000000
H      -1.201460000000000     -1.669970000000000     -0.918210000000000
H      -1.202950000000000     -1.676570000000000      0.912560000000000
H       1.204000000000000     -1.675860000000000      0.911960000000000
H       1.202850000000000     -1.663420000000000     -0.920540000000000
H       2.364020000000000      0.521930000000000      0.907250000000000
H       3.308990000000000     -0.723570000000000      0.000390000000000
H       2.363770000000000      0.526740000000000     -0.899300000000000
H      -2.362190000000000      0.526500000000000     -0.899980000000000
H      -3.308940000000000     -0.722210000000000     -0.000340000000000
H      -2.362610000000000      0.521790000000000      0.906310000000000
Na     15.253980000000000    -14.778729999999999      0.965250000000000
C      12.077710000000000    -13.611420000000001     -0.032540000000000
C      12.655939999999999    -12.611649999999999      1.968200000000000
O      13.066369999999999    -13.514290000000001      0.966620000000000
C      12.560600000000001    -14.592290000000000     -1.091750000000000
C      13.751580000000001    -12.538860000000000      3.021810000000000
H      11.124050000000000    -14.002480000000000      0.389440000000000
H      11.913240000000000    -12.626360000000000     -0.525590000000000
H      12.512760000000000    -11.589810000000000      1.548610000000000
H      11.722920000000000    -12.964259999999999      2.464290000000000
H      14.698620000000000    -12.186400000000001      2.559970000000000
H      13.462440000000001    -11.835410000000000      3.828070000000000
H      13.918889999999999    -13.543939999999999      3.464640000000000
H      12.733750000000001    -15.589910000000000     -0.634070000000000
H      11.801090000000000    -14.691000000000001     -1.895240000000000
H      13.512490000000000    -14.231380000000000     -1.537170000000000
Mg      6.072670000000000     -7.805410000000000      3.821190000000000
C       7.800050000000000     -5.811160000000000      4.565590000000000
C       9.912879999999999     -5.066110000000000      3.910430000000000
O       8.713130000000000     -5.679510000000000      3.493130000000000
C       7.116240000000000     -4.515110000000000      4.937720000000000
C      11.050179999999999     -5.526220000000000      3.005830000000000
H       9.136350000000000     -7.936580000000000      4.235740000000000
H       8.213810000000000     -6.343370000000000      5.448870000000000
H       9.806039999999999     -3.965210000000000      3.818410000000000
H      10.196630000000001     -5.332980000000000      4.953190000000000
H      10.822939999999999     -5.283860000000000      1.945910000000000
H      11.990259999999999     -5.013520000000000      3.299170000000000
H      11.202460000000000     -6.622240000000000      3.097800000000000
H       6.684690000000000     -4.047460000000000      4.034390000000000
H       6.305260000000000     -4.742750000000000      5.659880000000000
H       7.846050000000000     -3.825960000000000      5.405090000000000
H       4.839230000000000     -8.643689999999999      6.090100000000000
C       3.086950000000000     -7.831940000000000      5.091140000000000
C       4.581360000000000     -7.777480000000000      5.449720000000000
C       2.716280000000000     -9.061850000000000      4.254230000000000
H       2.500790000000000     -7.847320000000000      6.036250000000000
H       2.813820000000000     -6.914040000000000      4.546490000000000
H       3.291360000000000     -9.052759999999999      3.306990000000000
H       2.962340000000000     -9.981000000000000      4.822430000000000
C       1.222760000000000     -9.106090000000000      3.925040000000000
H       4.765080000000000     -6.846100000000000      6.026420000000000
H       0.621530000000000     -9.146860000000000      4.858150000000000
H       0.916340000000000     -8.218870000000001      3.333380000000000
H       1.001020000000000    -10.016180000000000      3.327110000000000
C       6.031830000000000    -10.735830000000000      3.926390000000000
C       6.668390000000000    -11.944440000000000      3.810190000000000
C       7.966990000000000    -11.669400000000000      3.457300000000000
C       8.073040000000001    -10.295439999999999      3.384710000000000
N       6.872710000000000     -9.724990000000000      3.666530000000000
C       9.364240000000001     -9.593529999999999      3.066360000000000
N       9.818849999999999     -8.706690000000000      4.147170000000000
C      10.123239999999999     -9.261760000000001      5.492250000000000
H       6.227110000000000    -12.915520000000001      3.970700000000000
H       5.003350000000000    -10.595350000000000      4.196010000000000
H       8.754379999999999    -12.389469999999999      3.287650000000000
H      10.162140000000001    -10.330489999999999      2.835910000000000
H       9.243320000000001     -8.997170000000001      2.140400000000000
C      11.006910000000000    -10.519729999999999      5.396950000000000
C      10.902060000000001     -8.182639999999999      6.269950000000000
C       8.837680000000001     -9.572900000000001      6.296110000000000
H      11.937220000000000    -10.288790000000001      4.837130000000000
H      11.281180000000001    -10.882660000000000      6.410370000000000
H      10.476160000000000    -11.346209999999999      4.882620000000000
H      10.293979999999999     -7.260250000000000      6.376280000000000
H      11.158750000000000     -8.538550000000001      7.291660000000000
H      11.843650000000000     -7.919570000000000      5.742310000000000
H       8.179020000000000     -8.678699999999999      6.343660000000000
H       8.262460000000001    -10.412300000000000      5.874120000000000
H       9.090529999999999     -9.873400000000000      7.334070000000000
Mg      3.488770000000000     -7.727630000000000      1.367010000000000
H       2.020750000000000     -9.902870000000000      0.938660000000000
C       3.735120000000000    -10.266520000000000     -0.326000000000000
C       2.655440000000000     -9.353790000000000      0.211340000000000
C       4.679010000000000    -10.666399999999999      0.803900000000000
H       3.266440000000000    -11.164239999999999     -0.783450000000000
H       4.299930000000000     -9.728569999999999     -1.112700000000000
H       5.093270000000000     -9.752409999999999      1.273220000000000
H       4.126340000000000    -11.229850000000001      1.586380000000000
C       5.823620000000000    -11.513690000000000      0.264750000000000
H       2.008850000000000     -8.983390000000000     -0.612150000000000
H       5.426950000000000    -12.449360000000000     -0.180460000000000
H       6.390970000000000    -10.947060000000000     -0.504370000000000
H       6.518110000000000    -11.775700000000001      1.083400000000000
C       1.940490000000000     -4.501770000000000     -0.027630000000000
C       1.185040000000000     -5.143130000000000      0.933470000000000
C       2.048040000000000     -5.487340000000000      1.949120000000000
C       3.253750000000000     -5.075020000000000      1.574220000000000
N       3.176240000000000     -4.444340000000000      0.325860000000000
C       4.532500000000000     -5.350400000000000      2.316740000000000
N       5.186450000000000     -6.540760000000000      1.750900000000000
C       6.166840000000000     -6.407600000000000      0.644050000000000
H       0.130870000000000     -5.386810000000000      0.879970000000000
H       1.576000000000000     -4.110010000000000     -0.961580000000000
H       1.796160000000000     -6.043610000000000      2.833520000000000
H       4.265870000000000     -5.622230000000000      3.357110000000000
H       5.168350000000000     -4.454280000000000      2.414780000000000
C       6.865090000000000     -5.028980000000000      0.607890000000000
C       7.260750000000000     -7.469880000000000      0.857020000000000
C       5.483210000000000     -6.677830000000000     -0.697550000000000
H       7.364550000000000     -4.815780000000000      1.574540000000000
H       7.641730000000000     -5.005310000000000     -0.186180000000000
H       6.141240000000000     -4.217310000000000      0.391350000000000
H       6.841570000000000     -8.491230000000000      0.896800000000000
H       8.012309999999999     -7.446400000000000      0.038160000000000
H       7.785430000000000     -7.285830000000000      1.813710000000000
H       5.043460000000000     -7.689690000000000     -0.695560000000000
H       4.679180000000000     -5.950220000000000     -0.893830000000000
H       6.216900000000000     -6.617020000000000     -1.529100000000000
