110

Na     -0.121940000000000      1.987940000000000     -0.919160000000000
C      -0.223890000000000     -1.429940000000000     -0.518120000000000
C       0.355750000000000     -0.427390000000000      1.487000000000000
O       0.019410000000000     -0.206270000000000      0.136590000000000
C      -0.583050000000000     -1.132420000000000     -1.968500000000000
C       0.604330000000000      0.924810000000000      2.144120000000000
H       0.686100000000000     -2.072120000000000     -0.512660000000000
H      -1.083820000000000     -1.962940000000000     -0.054410000000000
H      -0.480040000000000     -0.925590000000000      2.028940000000000
H       1.289690000000000     -1.028190000000000      1.570560000000000
H      -0.310310000000000      1.552760000000000      2.079810000000000
H       0.873230000000000      0.790520000000000      3.212710000000000
H       1.435680000000000      1.451290000000000      1.627710000000000
H       0.254090000000000     -0.596340000000000     -2.465290000000000
H      -0.781650000000000     -2.076590000000000     -2.517520000000000
H      -1.491360000000000     -0.493540000000000     -2.011440000000000
Na      5.841290000000000    -16.362880000000001      5.968980000000000
C       2.620820000000000    -15.562160000000000      4.777300000000000
C       4.064370000000000    -13.831870000000000      4.275160000000000
O       3.948410000000000    -15.100250000000001      4.877790000000000
C       2.539170000000000    -16.933750000000000      5.431970000000000
C       5.508350000000000    -13.368880000000001      4.403040000000000
H       1.922190000000000    -14.881560000000000      5.315140000000000
H       2.317050000000000    -15.671110000000001      3.711130000000000
H       3.816400000000000    -13.884990000000000      3.191240000000000
H       3.416590000000000    -13.086250000000000      4.790220000000000
H       6.183730000000000    -14.089800000000000      3.894270000000000
H       5.630750000000000    -12.368860000000000      3.936930000000000
H       5.792770000000000    -13.305310000000000      5.475280000000000
H       2.834700000000000    -16.861830000000001      6.500690000000000
H       1.502340000000000    -17.325250000000000      5.369840000000000
H       3.223860000000000    -17.641150000000000      4.916720000000000
Mg     -2.240300000000000    -10.316400000000000      1.013890000000000
H      -4.607250000000000    -11.822200000000000      1.315010000000000
C      -4.150050000000000    -11.629949999999999     -0.820390000000000
C      -4.240160000000000    -11.066150000000000      0.590900000000000
C      -3.239020000000000    -12.852370000000001     -0.822380000000000
H      -5.152280000000000    -11.906260000000000     -1.209840000000000
H      -3.723910000000000    -10.840900000000000     -1.474790000000000
H      -2.306700000000000    -12.607189999999999     -0.297500000000000
H      -3.726690000000000    -13.679800000000000     -0.265750000000000
C      -2.892910000000000    -13.293240000000001     -2.239510000000000
H      -4.929430000000000    -10.193560000000000      0.593430000000000
H      -3.813520000000000    -13.554040000000001     -2.800310000000000
H      -2.355590000000000    -12.477779999999999     -2.772660000000000
H      -2.225720000000000    -14.179560000000000     -2.196860000000000
C      -0.039280000000000     -8.198460000000001     -3.395720000000000
C      -0.043310000000000     -9.469120000000000     -2.865350000000000
C      -1.013390000000000     -9.496169999999999     -1.880070000000000
C      -1.577020000000000     -8.293279999999999     -1.808570000000000
N      -1.017430000000000     -7.415170000000000     -2.760050000000000
C      -2.665590000000000     -7.903180000000000     -0.850180000000000
N      -2.107480000000000     -7.727290000000000      0.503710000000000
C      -2.091550000000000     -6.338900000000000      1.016030000000000
H       0.602790000000000    -10.284010000000000     -3.167750000000000
H       0.614090000000000     -7.847480000000000     -4.182520000000000
H      -1.283700000000000    -10.340570000000000     -1.274920000000000
H      -3.448190000000000     -8.683820000000001     -0.835760000000000
H      -3.177080000000000     -7.000370000000000     -1.224250000000000
C      -3.529810000000000     -5.912950000000000      1.358700000000000
C      -1.246830000000000     -6.282300000000000      2.303910000000000
C      -1.422820000000000     -5.365410000000000      0.019260000000000
H      -3.968440000000000     -6.622450000000000      2.094980000000000
H      -3.545970000000000     -4.895220000000000      1.798580000000000
H      -4.180670000000000     -5.918250000000000      0.462230000000000
H      -0.212250000000000     -6.621670000000000      2.103150000000000
H      -1.195960000000000     -5.246590000000000      2.700790000000000
H      -1.667830000000000     -6.896580000000000      3.112720000000000
H      -0.387950000000000     -5.703620000000000     -0.202380000000000
H      -1.967370000000000     -5.273060000000000     -0.937600000000000
H      -1.373620000000000     -4.348330000000000      0.458950000000000
Mg      0.268020000000000     -8.600759999999999      0.731340000000000
H       2.780930000000000     -8.401130000000000     -0.437940000000000
C       2.604920000000000     -6.539320000000000      0.709520000000000
C       2.007880000000000     -7.664610000000000     -0.140320000000000
C       3.354120000000000     -7.052730000000000      1.943960000000000
H       3.342360000000000     -6.006190000000000      0.073120000000000
H       1.818770000000000     -5.808270000000000      1.001260000000000
H       4.101240000000000     -7.809750000000000      1.621350000000000
H       3.897160000000000     -6.203100000000000      2.409660000000000
C       2.439090000000000     -7.647880000000000      3.005490000000000
H       1.595080000000000     -7.205440000000000     -1.065070000000000
H       1.744080000000000     -6.876480000000000      3.396460000000000
H       1.858640000000000     -8.482460000000000      2.586630000000000
H       3.051100000000000     -8.031000000000001      3.848800000000000
C      -3.385290000000000    -11.316480000000000      4.898920000000000
C      -3.924720000000000    -10.127039999999999      4.463600000000000
C      -2.924680000000000     -9.448930000000001      3.798650000000000
C      -1.814900000000000    -10.191160000000000      3.818680000000000
N      -2.043480000000000    -11.401260000000001      4.513360000000000
C      -0.479200000000000     -9.810770000000000      3.242030000000000
N      -0.314090000000000    -10.275010000000000      1.850240000000000
C       0.535080000000000    -11.480079999999999      1.632160000000000
H      -4.940140000000000     -9.793609999999999      4.621370000000000
H      -3.911930000000000    -12.077170000000001      5.458030000000000
H      -3.049180000000000     -8.480150000000000      3.345240000000000
H       0.330030000000000    -10.108680000000000      3.929740000000000
H      -0.420400000000000     -8.710870000000000      3.229310000000000
C      -0.082990000000000    -12.702150000000000      2.334150000000000
C       0.646700000000000    -11.780740000000000      0.126880000000000
C       1.985000000000000    -11.254970000000000      2.118430000000000
H      -1.121730000000000    -12.868720000000000      1.972100000000000
H       0.512480000000000    -13.617620000000001      2.135790000000000
H      -0.102870000000000    -12.557420000000000      3.431010000000000
H       1.084200000000000    -10.919230000000001     -0.420170000000000
H       1.295060000000000    -12.667149999999999     -0.048970000000000
H      -0.321450000000000    -12.021459999999999     -0.315620000000000
H       2.443420000000000    -10.404999999999999      1.570750000000000
H       2.064260000000000    -11.068700000000000      3.204490000000000
H       2.601040000000000    -12.154579999999999      1.909760000000000
