54

Mg       -0.236621   -0.355666   -0.461958
C        0.992101    2.475166   -1.393798
C       -1.355762    2.504947   -1.449550
O       -0.189346    1.711516   -1.664618
C        2.195675    1.781984   -1.993737
C       -2.603521    1.680370   -1.677557
H        0.857851    3.475047   -1.834456
H        1.093635    2.582687   -0.304977
H       -1.341081    2.893690   -0.422624
H       -1.324739    3.352485   -2.152590
H       -2.690817    0.884866   -0.934045
H       -3.482735    2.327407   -1.590827
H       -2.597701    1.219703   -2.669011
H        2.067667    1.639600   -3.071839
H        3.089934    2.391251   -1.823264
H        2.324733    0.816338   -1.493113
H       -2.129279   -1.195705   -2.317269
C       -2.366318   -2.591973   -0.694236
C       -1.478726   -1.713742   -1.591955
C       -3.331023   -1.777827    0.173360
H       -2.969236   -3.325718   -1.263709
H       -1.735992   -3.195331   -0.021267
H       -2.753996   -1.080754    0.795805
H       -3.960282   -1.158553   -0.482719
C       -4.225037   -2.636589    1.067208
H       -0.847642   -2.376153   -2.208033
H       -4.834491   -3.326748    0.470654
H       -3.619932   -3.240895    1.752813
H       -4.903641   -2.026023    1.673227
C       -1.557003    1.647716    1.734208
C       -0.916205    2.614119    2.494287
C        0.458146    2.259709    2.496542
C        0.566187    1.093556    1.748343
N       -0.664077    0.720434    1.271626
C        1.793005    0.252443    1.463393
N        1.630339   -0.552613    0.267404
C        2.604611   -1.611298    0.096560
H       -1.376995    3.462143    2.988360
H       -2.608174    1.573813    1.473130
H        1.269593    2.776786    2.996771
H        2.656876    0.949532    1.406861
H        1.993150   -0.366192    2.363396
C        2.406438   -2.765753    1.111237
C        2.418607   -2.195277   -1.312107
C        4.062608   -1.108264    0.215212
H        1.404652   -3.190596    0.987120
H        3.147200   -3.566478    0.977489
H        2.491115   -2.402376    2.140736
H        2.602836   -1.428092   -2.072774
H        3.101930   -3.034348   -1.495028
H        1.391657   -2.554972   -1.439095
H        4.233070   -0.279977   -0.482024
H        4.276424   -0.745287    1.226242
H        4.782117   -1.905759   -0.011154
