39

Mg        0.402572   -0.457398   -0.564853
H        1.555160   -2.895028   -0.246611
C        3.248820   -1.688807   -0.854165
C        1.763380   -2.073941   -0.952233
C        3.611373   -0.895240    0.409621
H        3.917318   -2.570178   -0.896381
H        3.522200   -1.070310   -1.720925
H        4.679081   -0.633774    0.387371
H        3.060832    0.056209    0.411591
C        3.309813   -1.649847    1.703956
H        1.584726   -2.518129   -1.944565
H        2.238763   -1.858539    1.793704
H        3.836225   -2.612537    1.727232
H        3.613044   -1.074874    2.585445
C        1.631189    2.540334   -0.432527
C        1.099078    3.704449    0.092854
C       -0.262795    3.421922    0.380270
C       -0.480641    2.104152    0.007941
N        0.675820    1.561120   -0.494320
C       -1.754425    1.285741    0.074448
N       -1.487106   -0.138972   -0.046585
C       -2.626068   -1.015694    0.110208
H        1.623671    4.638523    0.259421
H        2.646249    2.336688   -0.756069
H       -0.995735    4.095912    0.809859
H       -2.435709    1.649282   -0.722284
H       -2.259993    1.548341    1.024245
C       -3.774505   -0.695456   -0.875726
C       -2.147342   -2.447038   -0.173223
C       -3.199504   -0.986732    1.548055
H       -3.390521   -0.696589   -1.901786
H       -4.585842   -1.431538   -0.802692
H       -4.204329    0.292102   -0.678446
H       -1.328372   -2.712145    0.505859
H       -2.953191   -3.180104   -0.043512
H       -1.772004   -2.524877   -1.200637
H       -2.414639   -1.260032    2.260910
H       -3.557478    0.014302    1.809929
H       -4.041555   -1.682028    1.666032
