93
speciation62.ct
Mg         0.95865       -0.48120       -0.05725
C          2.45091       -2.96078        0.41046
C          0.11065       -3.31943        0.73302
O          1.15315       -2.38542        0.47799
C          2.61707       -4.16464       -0.52755
C          0.20324       -3.98316        2.10999
H          3.11195       -2.19071        0.00609
H          2.82343       -3.19374        1.43004
H         -0.85250       -2.78465        0.71830
H          0.04644       -4.08953       -0.06914
H          0.17258       -3.21486        2.90406
H         -0.66062       -4.66898        2.24740
H          1.13105       -4.58131        2.21726
H          2.28664       -3.90786       -1.55557
H          3.69195       -4.44854       -0.56008
H          2.06252       -5.05220       -0.15957
H          0.78021        0.51892        2.32489
C         -1.35247        0.67797        2.21376
C          0.01831        0.65100        1.53164
C         -1.69851       -0.60397        2.97301
H         -1.37359        1.52159        2.93789
H         -2.13543        0.88285        1.45796
H         -2.72835       -0.49280        3.37554
H         -1.69478       -1.46637        2.28224
C         -0.76312       -0.86560        4.15667
H          0.17384        1.66065        1.12409
H          0.27974       -1.03855        3.82343
H         -0.77977       -0.00424        4.85832
H         -1.10253       -1.77215        4.70025
C          1.95862        2.23343       -4.85397
C          2.80336        1.37411       -5.52344
C          2.68137        0.14321       -4.91260
C          1.76394        0.31456       -3.90389
N          1.32371        1.58432       -3.86206
C          1.27248       -0.71989       -2.94863
N          0.24573       -0.14176       -2.03233
C         -1.14399       -0.56184       -2.36201
H          3.43951        1.60644       -6.36933
H          1.81257        3.28507       -5.08102
H          3.19203       -0.77517       -5.18408
H          2.12976       -1.09503       -2.35318
H          0.90079       -1.57100       -3.54965
C         -1.37653       -2.09052       -2.33193
C         -2.03446        0.07289       -1.30173
C         -1.56800       -0.04440       -3.75570
H         -1.05362       -2.50772       -1.38159
H         -2.45817       -2.31633       -2.45379
H         -0.85779       -2.64175       -3.13857
H         -1.90490        1.17337       -1.28828
H         -3.10846       -0.15271       -1.47305
H         -1.74199       -0.33744       -0.31831
H         -1.41584        1.04831       -3.84174
H         -0.98741       -0.53978       -4.56245
H         -2.64251       -0.26017       -3.94156
Mg         0.00503        1.89798       -2.45946
H          2.47265        1.62383        0.02575
C          4.13461        0.34710       -0.47805
C          2.80130        0.58360        0.23278
C          5.18366        1.37662       -0.02788
H          4.52469       -0.65728       -0.23320
H          3.98202        0.42516       -1.57412
H          4.84049        2.39812       -0.29927
H          5.32067        1.32941        1.07460
C          6.52998        1.10629       -0.69416
H          2.97532        0.47373        1.32566
H          6.91695        0.11174       -0.38335
H          6.42508        1.12881       -1.79876
H          7.26265        1.88209       -0.38650
C         -2.32957        4.51556        2.32020
C         -1.72068        5.74774        2.23056
C         -0.84453        5.70069        1.16049
C         -0.91976        4.48817        0.61398
N         -1.84330        3.67355        1.30761
C         -0.16891        4.03558       -0.60672
N         -1.06269        3.51099       -1.65152
C         -1.92149        4.51493       -2.37134
H         -1.90893        6.59403        2.87842
H         -3.07341        4.23137        3.05076
H         -0.22428        6.51427        0.80566
H          0.50231        3.21418       -0.31232
H          0.50237        4.82425       -1.00307
C         -1.08781        5.66201       -2.98680
C         -2.67556        3.79271       -3.49987
C         -3.01229        5.13909       -1.45530
H         -0.30437        5.25991       -3.66047
H         -1.74110        6.35041       -3.56679
H         -0.61314        6.28127       -2.19888
H         -3.33964        3.00406       -3.08279
H         -3.31476        4.51192       -4.06119
H         -1.96573        3.33370       -4.21727
H         -3.61255        4.34995       -0.95467
H         -2.59837        5.82005       -0.69572
H         -3.70731        5.77828       -2.04373
