93
speciation104.ct
Mg         2.44541        1.01655       -2.13945
C          0.64050       -1.61163       -0.94241
C          0.60425        0.06870        0.68789
O          0.94426       -0.22527       -0.69249
C         -0.78195       -2.13204       -0.54845
C          1.16598       -0.87484        1.81885
H          0.66115       -1.79033       -2.01788
H          1.40131       -2.28173       -0.47167
H          0.88243        1.09721        0.95607
H         -0.50835        0.05365        0.79772
H          2.25562       -0.77439        1.96982
H          0.68250       -0.61830        2.79782
H          0.93416       -1.95920        1.70170
H         -1.58265       -1.53563       -1.03429
H         -0.89526       -3.18444       -0.87947
H         -0.98198       -2.15311        0.55130
H          4.75302        0.12934       -3.94864
C          3.32664       -1.05204       -2.99103
C          4.21296        0.20788       -2.99225
C          2.25568       -1.08658       -4.06903
H          3.96350       -1.95723       -3.06062
H          2.77394       -1.11565       -2.06895
H          1.65015       -2.00616       -3.92830
H          1.58133       -0.21852       -3.95286
C          2.84364       -1.15511       -5.46147
H          5.05419        0.13318       -2.27735
H          3.42633       -0.24527       -5.69112
H          3.49885       -2.04896       -5.53080
H          2.01614       -1.24263       -6.19062
C          3.16768        2.55293       -5.75234
C          4.21694        2.85757       -6.57219
C          5.33201        2.81472       -5.82707
C          4.91388        2.57441       -4.55537
N          3.59112        2.20927       -4.45945
C          5.71971        2.98188       -3.43111
N          4.83266        3.98034       -2.80887
C          5.04760        5.43671       -3.28397
H          4.20067        3.19894       -7.61156
H          2.19210        2.62192       -6.19152
H          6.34902        3.08498       -6.14970
H          6.67130        3.42675       -3.79691
H          6.01348        2.18214       -2.71578
C          4.79034        5.67493       -4.78998
C          4.10791        6.42426       -2.57928
C          6.48548        5.95093       -2.95797
H          3.76515        5.36069       -5.07088
H          4.87297        6.76613       -5.03470
H          5.54999        5.21189       -5.43081
H          4.44243        6.60457       -1.53556
H          4.14747        7.44735       -3.00957
H          3.06689        6.07118       -2.68074
H          6.72630        5.80500       -1.88532
H          7.28025        5.49592       -3.57618
H          6.55718        7.05803       -3.15894
Mg         3.11383        2.52872       -2.47430
H          1.00662        3.58761       -4.14735
C         -0.50831        2.13139       -4.30424
C          0.93551        2.51179       -3.87542
C         -0.90249        2.75333       -5.68255
H         -0.59159        1.01853       -4.38639
H         -1.22396        2.48275       -3.54016
H         -0.93844        3.86205       -5.59631
H         -0.18214        2.49545       -6.49032
C         -2.28290        2.27311       -6.14689
H          1.34637        1.83609       -4.60019
H         -2.26408        1.17984       -6.35363
H         -3.05625        2.48521       -5.37846
H         -2.58150        2.78869       -7.09018
C          4.23875       -0.81854       -0.08985
C          5.14079       -0.61716        0.92456
C          5.04400        0.70798        1.26055
C          4.07641        1.24646        0.43523
N          3.62194        0.35023       -0.43209
C          3.60563        2.62969        0.46108
N          2.46844        2.84120       -0.46997
C          1.78265        4.15211       -0.20924
H          5.81514       -1.35481        1.33715
H          4.13570       -1.77138       -0.58845
H          5.62904        1.22481        2.00797
H          3.27847        2.80438        1.50352
H          4.47561        3.26862        0.21575
C          2.82011        5.25167       -0.07817
C          0.85319        4.47274       -1.38678
C          0.93369        4.17720        1.07529
H          3.57630        4.95669       -0.80077
H          2.40606        6.26946       -0.24710
H          3.34657        5.24293        0.89672
H          0.03974        3.71844       -1.47012
H          0.37602        5.47127       -1.26663
H          1.44215        4.51336       -2.31225
H          0.13918        3.40980        1.05317
H          1.55464        4.03882        1.98190
H          0.45508        5.17953        1.17972
