52
speciation9.ct
Mg         0.66636        0.27573       -0.07591
H          1.10262       -0.15632       -2.75769
C         -0.98530        0.37334       -2.81847
C          0.20386       -0.31062       -2.12676
C         -0.70210        1.85245       -3.04202
H         -1.16421       -0.11140       -3.80794
H         -1.90719        0.25703       -2.21381
H         -0.51153        2.34398       -2.06145
H          0.20748        1.95695       -3.67824
C         -1.85781        2.56676       -3.73820
H          0.02590       -1.40285       -2.11004
H         -2.05680        2.11396       -4.73408
H         -2.77923        2.51073       -3.12130
H         -1.59415        3.63603       -3.88617
C         -1.71592       -3.09134       -1.09477
C         -2.69854       -2.12764       -1.14511
C         -2.49402       -1.26765       -0.07661
C         -1.42016       -1.69141        0.59257
N         -0.87638       -2.85159        0.00337
C         -0.86674       -1.07258        1.83672
N         -0.45359        0.32299        1.60629
C          0.06707        1.01002        2.83709
H         -3.47740       -2.06069       -1.89268
H         -1.59155       -3.90576       -1.79605
H         -3.09728       -0.40614        0.17315
H         -0.00106       -1.68649        2.15122
H         -1.67041       -1.12941        2.59579
C          1.35801        0.33411        3.35944
C          0.40610        2.47260        2.49679
C         -0.98296        1.03180        3.97286
H          2.14178        0.33487        2.58100
H          1.75524        0.88478        4.24210
H          1.17684       -0.70546        3.69510
H         -0.49950        3.02021        2.15829
H          0.79586        2.99618        3.40137
H          1.18356        2.53522        1.70718
H         -1.91890        1.52478        3.63166
H         -1.22511        0.01956        4.34827
H         -0.59714        1.59508        4.85189
H          3.08436        0.28618       -1.22439
C          3.42710       -1.21869        0.31001
C          2.76213        0.06943       -0.18429
C          3.03885       -2.43596       -0.52838
H          4.53127       -1.08283        0.26105
H          3.14425       -1.39448        1.36913
H          1.94017       -2.58956       -0.47030
H          3.32495       -2.26900       -1.58858
C          3.74924       -3.69254       -0.01961
H          3.11912        0.90139        0.45834
H          4.85229       -3.57234       -0.09604
H          3.48242       -3.88938        1.04092
H          3.44674       -4.56837       -0.63079
