93
speciation84.ct
Mg         3.18649       -1.44372        0.20951
C          1.10742       -3.25856        0.68575
C          2.65281       -3.13994        2.49025
O          2.45598       -3.04661        1.07982
C          0.09879       -2.31376        1.35011
C          2.33171       -4.53520        3.06411
H          1.06871       -3.10933       -0.40694
H          0.80699       -4.31991        0.81599
H          3.72627       -2.95700        2.69864
H          2.09281       -2.35532        3.03888
H          2.95798       -5.31230        2.57748
H          2.53669       -4.54855        4.15600
H          1.26177       -4.80347        2.93943
H          0.44080       -1.26637        1.25176
H         -0.89613       -2.43388        0.87270
H         -0.02356       -2.54195        2.42833
H          5.12360       -3.40158        0.66193
C          6.23025       -1.80988       -0.27294
C          4.97085       -2.65608       -0.14698
C          7.53178       -2.57884       -0.61881
H          6.00573       -1.08721       -1.06435
H          6.38706       -1.26962        0.68615
H          8.38189       -1.86948       -0.64200
H          7.75972       -3.33559        0.16121
C          7.51090       -3.22970       -1.99817
H          4.78003       -3.18690       -1.09985
H          6.73775       -4.01955       -2.04976
H          7.32156       -2.46089       -2.77806
H          8.50174       -3.69230       -2.20342
C          3.52361        4.96450       -0.28466
C          2.52872        4.61579        0.60783
C          2.58341        3.24311        0.73954
C          3.57414        2.80900       -0.11123
N          4.18658        3.86652       -0.70007
C          3.90001        1.35830       -0.36418
N          2.69173        0.49980       -0.46682
C          1.75822        0.74306       -1.62144
H          1.83307        5.28115        1.09852
H          3.76024        5.97216       -0.59870
H          1.93201        2.62944        1.34781
H          4.48594        0.99508        0.50406
H          4.54889        1.23992       -1.25862
C          2.46653        0.63563       -2.98908
C          0.64968       -0.31052       -1.56180
C          1.03645        2.11435       -1.56182
H          2.94271       -0.35632       -3.11428
H          1.72761        0.78024       -3.81198
H          3.23164        1.42917       -3.10446
H          0.08326       -0.20699       -0.61563
H         -0.07858       -0.17711       -2.39192
H          1.08360       -1.32119       -1.64482
H          0.51171        2.24398       -0.59072
H          1.71514        2.96630       -1.75351
H          0.26426        2.19438       -2.35693
Mg         5.77466        3.86900       -1.89975
H          4.70331        5.56602       -3.64200
C          3.86722        3.90153       -4.71339
C          5.02290        4.53668       -3.92340
C          3.50582        4.75212       -5.95593
H          4.16222        2.88777       -5.03150
H          2.97039        3.84344       -4.05776
H          3.17277        5.76408       -5.63632
H          4.39192        4.88011       -6.62125
C          2.38187        4.12115       -6.78280
H          5.84833        4.61683       -4.65030
H          2.71004        3.14455       -7.18875
H          1.47391        3.97814       -6.15942
H          2.11886        4.78560       -7.63713
C          7.28233        1.15129       -1.16257
C          8.08203        0.93940       -0.03776
C          8.11105        2.11296        0.66078
C          7.32657        2.97625       -0.06930
N          6.81280        2.40829       -1.16796
C          7.17465        4.44843        0.16271
N          7.15546        5.11785       -1.15983
C          8.48277        5.18567       -1.87228
H          8.61536        0.05318        0.24932
H          7.08130        0.44952       -1.95076
H          8.66282        2.32947        1.57038
H          7.92829        4.85996        0.86524
H          6.19270        4.62090        0.64466
C          9.14252        3.81298       -2.19455
C          8.25671        5.87440       -3.21718
C          9.49515        6.02411       -1.06935
H          8.47286        3.17137       -2.80545
H         10.06784        3.94931       -2.79437
H          9.48020        3.27454       -1.28825
H          7.77762        6.86526       -3.08475
H          9.20957        5.99603       -3.77345
H          7.62314        5.23661       -3.84125
H          9.08175        7.02959       -0.85302
H          9.76936        5.52951       -0.11581
H         10.43913        6.14299       -1.64627
