78
speciation14.ct
Mg         1.48823        0.27914        1.87634
H          3.00509       -1.25550        0.10013
C          2.80882        0.64176       -0.88611
C          2.22385       -0.47783       -0.02439
C          4.07636        1.21605       -0.23581
H          3.08457        0.24018       -1.89241
H          2.03302        1.42030       -1.01609
H          3.90877        1.41806        0.84231
H          4.87723        0.44499       -0.31823
C          4.52348        2.54031       -0.87011
H          1.37104       -0.95393       -0.55173
H          5.62934        2.65024       -0.81061
H          4.16759        2.67324       -1.91522
H          4.08622        3.37237       -0.28257
C          0.54817        2.52642        3.57710
C         -0.42072        3.48658        3.79223
C         -1.35731        3.33888        2.79386
C         -0.92152        2.28781        2.01995
N          0.26673        1.79586        2.46419
C         -1.71038        1.76084        0.86225
N         -2.14819        0.36977        0.98784
C         -3.02072       -0.00578        2.14783
H         -0.46945        4.21043        4.60406
H          1.42455        2.38961        4.18617
H         -2.26881        3.90852        2.67374
H         -2.59588        2.40982        0.67054
H         -1.06927        1.83594       -0.05195
C         -4.34739        0.78212        2.10542
C         -3.29438       -1.51671        2.03552
C         -2.38401        0.17934        3.55155
H         -4.85600        0.66509        1.13123
H         -5.03627        0.43696        2.90767
H         -4.16886        1.86554        2.26864
H         -2.34740       -2.08708        2.15267
H         -3.99870       -1.85506        2.82950
H         -3.70114       -1.79421        1.05342
H         -1.42107       -0.36651        3.63783
H         -2.24637        1.22824        3.84480
H         -3.07137       -0.21705        4.33305
Mg        -3.42117        0.31242       -0.54066
H          2.11116       -0.91911        4.19508
C          3.03460       -2.28131        2.77877
C          1.89899       -1.34132        3.18861
C          4.37541       -1.54326        2.68634
H          3.12021       -3.10844        3.51778
H          2.77462       -2.72933        1.79799
H          4.28154       -0.68584        1.99289
H          4.66410       -1.15293        3.68649
C          5.47948       -2.46277        2.16557
H          0.95913       -1.92808        3.25354
H          5.64613       -3.31048        2.86340
H          5.20734       -2.86313        1.16489
H          6.42613       -1.89028        2.06654
C         -1.47408        3.27053       -3.15417
C         -2.64303        3.98179       -3.00923
C         -3.69038        3.07235       -3.02379
C         -3.17387        1.84992       -3.17807
N         -1.76683        1.90242       -3.26320
C         -3.95047        0.56911       -3.30384
N         -4.69416        0.25507       -2.06916
C         -5.43660       -1.03473       -2.09779
H         -2.71449        5.05873       -2.91497
H         -0.47697        3.68997       -3.18921
H         -4.74327        3.31254       -2.95424
H         -3.21093       -0.22521       -3.51790
H         -4.63731        0.67855       -4.16679
C         -4.47607       -2.22884       -2.29687
C         -6.16049       -1.20129       -0.75375
C         -6.52439       -1.04712       -3.19550
H         -3.65744       -2.19778       -1.54636
H         -5.01772       -3.19299       -2.19124
H         -4.02896       -2.22983       -3.31256
H         -6.87320       -0.36823       -0.57957
H         -6.71976       -2.16196       -0.71800
H         -5.44774       -1.20787        0.07551
H         -7.23539       -0.20633       -3.04397
H         -6.09386       -0.97365       -4.21311
H         -7.09908       -1.99890       -3.15593
