78
speciation49.ct
Mg         2.24549        0.25578        1.14990
H          0.85829        1.40322        3.22277
C          1.24037       -0.42289        4.29796
C          0.95769        0.33309        2.96296
C          2.46895        0.10714        5.06107
H          0.35408       -0.27685        4.95251
H          1.35160       -1.50793        4.11400
H          3.38946       -0.06618        4.46596
H          2.35764        1.19807        5.23978
C          2.62494       -0.57296        6.43073
H         -0.01856       -0.02202        2.56971
H          1.73653       -0.37760        7.06747
H          2.75129       -1.67109        6.31688
H          3.51852       -0.16932        6.95200
C          5.11280        1.10982        2.36978
C          5.67539        2.38308        2.28208
C          4.76909        3.18181        1.63138
C          3.70377        2.36250        1.35648
N          3.90823        1.08932        1.75678
C          2.46421        2.70906        0.60329
N          2.18631        1.61812       -0.33514
C          3.09545        1.51692       -1.54157
H          6.64365        2.70178        2.64284
H          5.58093        0.25194        2.82137
H          4.85908        4.22858        1.36833
H          2.46722        3.71534        0.14346
H          1.63322        2.69810        1.33809
C          4.59100        1.29554       -1.20610
C          2.68371        0.31345       -2.39636
C          2.97223        2.76174       -2.43626
H          4.72369        0.40476       -0.55550
H          5.17570        1.10783       -2.13214
H          5.05572        2.18661       -0.75187
H          1.60745        0.36924       -2.66483
H          3.26758        0.27240       -3.34207
H          2.93041       -0.62288       -1.86631
H          1.94183        2.86027       -2.81529
H          3.26852        3.68427       -1.90118
H          3.63536        2.67029       -3.32310
Mg         0.42230        1.77431       -0.83912
H         -0.94998        4.04711       -0.81317
C         -0.96723        3.41802       -2.89909
C         -0.26001        3.60372       -1.56145
C         -1.44059        4.76385       -3.46045
H         -0.27003        2.93864       -3.61890
H         -1.83603        2.74362       -2.74575
H         -2.13180        5.24241       -2.73389
H         -0.56860        5.43689       -3.61981
C         -2.17101        4.58213       -4.78745
H          0.60707        4.28824       -1.67657
H         -1.48559        4.15947       -5.55287
H         -3.03922        3.90166       -4.65784
H         -2.54140        5.56606       -5.14517
C         -1.97853        0.54489       -0.31416
C         -2.67732       -0.61382       -0.15085
C         -1.75213       -1.63959       -0.27035
C         -0.52258       -1.04825       -0.49293
N         -0.69154        0.29651       -0.54338
C          0.76989       -1.82049       -0.73812
N          1.91388       -1.53287        0.19628
C          2.60577       -2.71620        0.75586
H         -3.73899       -0.71511        0.02512
H         -2.40189        1.55753       -0.28651
H         -1.96612       -2.70044       -0.21645
H          0.51467       -2.89612       -0.75529
H          1.06775       -1.63484       -1.77894
C          3.25149       -3.57496       -0.35679
C          3.72912       -2.20241        1.66593
C          1.64327       -3.58401        1.59913
H          3.98676       -2.97889       -0.94013
H          3.79145       -4.44054        0.08856
H          2.50020       -3.98378       -1.06268
H          3.31057       -1.57073        2.47441
H          4.28511       -3.04556        2.12955
H          4.44882       -1.59109        1.07960
H          1.16488       -2.97599        2.38817
H          0.83972       -4.04502        0.99161
H          2.19510       -4.42290        2.07326
