78
speciation41.ct
Mg         1.43409        1.35154       -0.28253
H          3.12252        2.43830        1.55998
C          2.12121        1.02924        2.86324
C          2.10189        2.02132        1.68081
C          3.17992       -0.08034        2.72568
H          2.35686        1.59808        3.78981
H          1.10948        0.58187        2.97530
H          2.99424       -0.68420        1.83586
H          4.19483        0.35975        2.62644
C          3.16108       -1.03513        3.91899
H          1.42997        2.84512        1.97830
H          3.45911       -0.50489        4.84726
H          2.14772       -1.47160        4.05310
H          3.87533       -1.86823        3.74007
C         -1.56978        0.91571       -0.14397
C         -2.28553       -0.25766        0.00236
C         -1.36188       -1.28671        0.06926
C         -0.12456       -0.69290       -0.05840
N         -0.26063        0.63283       -0.18198
C          1.22039       -1.37943       -0.07618
N          2.29948       -0.41119       -0.42734
C          3.17768       -0.73546       -1.55631
H         -3.35980       -0.35177        0.05864
H         -1.97819        1.91497       -0.21786
H         -1.56998       -2.34057        0.18532
H          1.17535       -2.21783       -0.79498
H          1.39351       -1.83873        0.91853
C          2.35089       -0.90740       -2.82474
C          4.15647        0.45441       -1.70835
C          4.01018       -2.00285       -1.29034
H          1.60672       -0.12134       -2.82225
H          2.96610       -0.86181       -3.74078
H          1.77433       -1.85080       -2.82817
H          4.76311        0.57802       -0.78129
H          4.84572        0.29278       -2.55777
H          3.61263        1.40587       -1.87578
H          4.62388       -1.88429       -0.37193
H          3.35337       -2.88576       -1.15993
H          4.68195       -2.19751       -2.15042
Mg         2.00535        5.83318        1.19598
H          2.28348        4.98112        3.65528
C          2.98062        7.05003        3.70766
C          2.87503        5.68729        3.03554
C          3.85065        8.02928        2.90322
H          1.96263        7.47237        3.84179
H          3.44231        6.91489        4.71010
H          3.89909        8.98812        3.46269
H          4.88588        7.63255        2.80830
C          3.29410        8.30967        1.50767
H          3.89397        5.26861        2.89247
H          3.32079        7.39332        0.88476
H          2.25075        8.68399        1.57561
H          3.91930        9.07717        1.00537
C          1.02977        2.37641       -3.21982
C          1.14550        3.46275       -4.05585
C          1.59211        4.49834       -3.28669
C          1.72070        3.99706       -2.01023
N          1.42626        2.67076       -1.95330
C          2.07747        4.83156       -0.84029
N          1.15699        5.97549       -0.59849
C         -0.29040        5.65326       -0.32133
H          0.89778        3.49690       -5.10799
H          0.63908        1.44313       -3.56848
H          1.76076        5.51677       -3.60951
H          2.12316        4.18172        0.05090
H          3.09850        5.23831       -0.99379
C         -0.44733        4.73983        0.90845
C         -1.02295        6.97382       -0.03588
C         -1.04292        4.98503       -1.50429
H          0.04170        5.17976        1.80247
H         -1.52135        4.57775        1.14794
H         -0.02695        3.74246        0.69034
H         -0.95166        7.65087       -0.91406
H         -2.10442        6.78470        0.15822
H         -0.59882        7.48363        0.85259
H         -0.96222        5.58318       -2.43465
H         -0.72099        3.94837       -1.69135
H         -2.12201        4.86977       -1.25919
