78
speciation25.ct
Mg         0.96184        0.23611       -0.02109
H          0.52872        2.86135        0.69174
C         -1.41573        2.51866       -0.19837
C          0.11142        2.30520       -0.17146
C         -1.92530        3.97915       -0.32963
H         -1.85309        1.94047       -1.03815
H         -1.83044        2.12314        0.74898
H         -3.03663        3.91690       -0.29598
H         -1.61009        4.61970        0.52450
C         -1.56407        4.67701       -1.64511
H          0.54496        2.70966       -1.10959
H         -0.52426        5.06622       -1.62015
H         -1.69080        3.99165       -2.50879
H         -2.24501        5.54444       -1.79921
C         -1.90882       -4.54103       -0.43642
C         -3.24396       -4.17951       -0.56155
C         -3.26615       -2.87342       -0.98946
C         -1.94399       -2.50234       -1.10217
N         -1.12764       -3.50339       -0.79199
C         -1.43451       -1.10705       -1.52398
N          0.06802       -0.97728       -1.67794
C          0.43213       -0.82469       -3.12566
H         -4.11005       -4.80140       -0.36562
H         -1.55208       -5.50892       -0.11131
H         -4.13634       -2.26798       -1.20181
H         -1.79124       -0.35480       -0.80227
H         -1.97494       -0.91653       -2.46509
C         -0.15511        0.48479       -3.73155
C          1.93347       -0.76944       -3.24589
C         -0.00020       -2.05397       -3.98584
H          0.13515        1.34924       -3.10523
H          0.22877        0.64417       -4.76187
H         -1.25476        0.48002       -3.82187
H          2.43556       -1.68141       -2.85091
H          2.27243       -0.58314       -4.29136
H          2.22431        0.06198       -2.65288
H          0.46507       -2.98836       -3.58792
H         -1.09129       -2.20458       -4.03789
H          0.36213       -1.93243       -5.03526
Mg         0.52064       -2.73856       -1.06954
H         -0.88601       -1.11610        1.34386
C          0.14873       -0.87424        3.20531
C          0.16747       -1.01751        1.66474
C         -0.44426        0.46061        3.66933
H         -0.41005       -1.71718        3.66498
H          1.15643       -0.98180        3.63549
H         -0.28789        0.55089        4.76614
H          0.07074        1.31661        3.18028
C         -1.94032        0.53050        3.40035
H          0.66580       -1.98855        1.45043
H         -2.14926        0.49312        2.31465
H         -2.44404       -0.32652        3.89551
H         -2.34586        1.47666        3.81137
C          6.88097       -0.77526       -1.45998
C          7.37507        0.49064       -1.68524
C          6.31948        1.37751       -1.55097
C          5.21795        0.67880       -1.26581
N          5.49823       -0.70673       -1.21550
C          3.88713        1.28436       -0.89235
N          3.21108        0.53055        0.19910
C          3.89112        0.80863        1.53698
H          8.40874        0.73756       -1.88855
H          7.46437       -1.68705       -1.45488
H          6.38307        2.45581       -1.61620
H          3.27709        1.40537       -1.77419
H          3.99183        2.35855       -0.66577
C          3.94784        2.31606        1.91095
C          3.10213        0.11922        2.60939
C          5.33248        0.22708        1.65757
H          2.93626        2.77076        1.88145
H          4.35574        2.44491        2.93948
H          4.63298        2.89443        1.26076
H          3.04536       -0.97228        2.40097
H          3.55088        0.26105        3.62019
H          2.12011        0.60458        2.60151
H          5.35192       -0.85767        1.41607
H          6.07429        0.76883        1.04680
H          5.71843        0.33857        2.69610
