93
speciation85.ct
Mg         0.93774        1.61679        0.52317
C         -0.16843        3.07382        2.79202
C          2.08131        3.63773        2.25411
O          1.04375        2.67097        2.15752
C         -0.71671        4.44747        2.38837
C          2.62175        3.75040        3.68703
H         -0.94196        2.32063        2.54875
H         -0.05536        3.01767        3.89590
H          2.90290        3.33361        1.59001
H          1.79854        4.62508        1.84509
H          2.93594        2.75660        4.06950
H          3.49370        4.43574        3.70986
H          1.85087        4.16368        4.37019
H         -0.86110        4.47366        1.29835
H         -1.69151        4.62193        2.88898
H         -0.05013        5.27706        2.70359
H          1.57196        3.32259       -1.31334
C         -0.32408        3.86846       -2.15094
C          0.55089        2.89140       -1.29742
C         -0.67483        5.24127       -1.55365
H         -1.29090        3.37838       -2.40144
H          0.19399        4.04902       -3.12200
H         -1.24484        5.81945       -2.31952
H         -1.35102        5.10666       -0.69308
C          0.53570        6.07011       -1.14006
H          0.48383        1.94099       -1.84809
H          1.09725        5.55171       -0.33838
H          1.20280        6.25589       -2.00750
H          0.18675        7.05030       -0.74552
C         -1.95174        0.71226        0.45478
C         -2.51197       -0.56369        0.40642
C         -1.45446       -1.44526        0.38803
C         -0.30264       -0.68407        0.39157
N         -0.62890        0.61717        0.47932
C          1.09913       -1.21447        0.35531
N          2.18875       -0.17864        0.51016
C          2.87849       -0.54298        1.85019
H         -3.55630       -0.79960        0.40553
H         -2.49777        1.64695        0.46631
H         -1.52142       -2.53238        0.37451
H          1.30381       -1.83373       -0.52946
H          1.06594       -1.93473        1.20473
C          3.57186       -1.95163        1.81507
C          3.91608        0.45659        2.07228
C          2.04774       -0.45124        3.16630
H          4.11587       -2.13747        0.87607
H          4.29230       -2.07926        2.65952
H          2.86106       -2.79126        1.91637
H          3.51193        1.44649        2.25022
H          4.66429        0.22478        2.87431
H          4.30403        0.40726        1.09924
H          1.54330        0.52532        3.25960
H          1.31750       -1.26383        3.28842
H          2.73854       -0.52929        4.05406
Mg         3.70151        0.07381       -1.41633
H          4.06976       -2.56496       -2.12884
C          4.35840       -1.80679       -4.13629
C          3.70528       -1.70891       -2.73239
C          5.89315       -1.74159       -4.12261
H          4.07387       -2.80107       -4.55349
H          3.95698       -1.03032       -4.82586
H          6.24672       -0.72945       -3.82266
H          6.26972       -2.48217       -3.38872
C          6.46814       -2.12624       -5.49743
H          2.61544       -1.85317       -2.90292
H          6.04477       -3.09883       -5.83408
H          6.23390       -1.35621       -6.26242
H          7.57157       -2.25213       -5.43988
C          2.28607        1.86840       -3.58062
C          2.65733        3.05721       -4.18708
C          3.92738        3.33882       -3.75859
C          4.27163        2.31882       -2.89945
N          3.22854        1.47023       -2.72138
C          5.62632        2.16607       -2.27888
N          5.66379        0.97172       -1.40666
C          6.32633        1.14659       -0.10565
H          2.07416        3.64567       -4.88054
H          1.33926        1.36651       -3.72623
H          4.54958        4.18128       -4.04228
H          5.88742        3.11502       -1.77005
H          6.37987        2.04951       -3.08925
C          5.56243        2.29001        0.63712
C          6.35301       -0.34180        0.42822
C          7.79815        1.56015       -0.08729
H          4.47261        2.29658        0.37348
H          5.74044        2.29454        1.72326
H          5.84843        3.30173        0.29984
H          6.16664       -0.30342        1.48191
H          7.08695       -0.76417        1.12457
H          5.57893       -1.00205       -0.04478
H          8.44557        0.84690       -0.62318
H          7.93314        2.58487       -0.47683
H          8.09807        1.57030        0.98618
