108
speciation134.ct
Mg         1.10998        0.09601       -0.46735
C         -1.18734       -0.57645       -2.66349
C          0.70071       -1.84685       -2.89865
O          0.20000       -0.65632       -2.27982
C         -2.10105       -1.66518       -2.07350
C          2.19292       -1.93869       -2.83928
H         -1.62056        0.38979       -2.44746
H         -1.31716       -0.58342       -3.77535
H          0.29411       -2.76537       -2.42710
H          0.46696       -1.85154       -3.99767
H          2.49509       -2.00745       -1.78129
H          2.53263       -2.85495       -3.36347
H          2.61956       -1.06851       -3.36631
H         -1.96063       -1.67168       -0.99294
H         -3.16905       -1.45427       -2.29630
H         -1.88302       -2.67056       -2.49325
H          1.22958       -2.32743        0.81857
C         -0.33434       -2.22487        2.25796
C          0.64876       -1.50183        1.28485
C         -1.39827       -3.08787        1.58200
H          0.24573       -2.87582        2.95444
H         -0.83655       -1.47029        2.89620
H         -1.97825       -2.46112        0.89903
H         -0.91484       -3.92158        1.02770
C         -2.40405       -3.64815        2.58982
H          1.23842       -0.94867        2.01502
H         -1.90774       -4.29870        3.33927
H         -2.92057       -2.81437        3.11499
H         -3.17408       -4.24220        2.05170
C         -3.02044        2.14836        2.85918
C         -2.48991        0.88166        2.79375
C         -1.74356        0.81962        1.62987
C         -1.78341        1.99147        1.02031
N         -2.61046        2.88994        1.73533
C         -1.03561        2.34459       -0.25923
N          0.45940        2.32811       -0.21579
C          0.94026        3.29806        0.87837
H         -2.62835        0.09797        3.53095
H         -3.64533        2.52320        3.66055
H         -1.20209       -0.00573        1.25765
H         -1.39091        3.32102       -0.63319
H         -1.36018        1.64301       -0.99225
C          0.75906        2.76283        2.33412
C          2.43079        3.59152        0.75526
C          0.28463        4.72158        0.78733
H          1.19899        1.74949        2.44225
H          1.25817        3.43366        3.07043
H         -0.26726        2.77390        2.70605
H          2.63898        4.21333       -0.10700
H          2.81271        4.18821        1.62156
H          2.97085        2.66353        0.67650
H          0.54982        5.21606       -0.17315
H         -0.81619        4.72367        0.88377
H          0.64876        5.38181        1.60710
Mg         0.92452        3.22901       -2.21491
C         -0.92411        4.08382       -4.28830
C          0.24820        2.22484       -5.03333
O          0.30949        3.37922       -4.17823
C         -0.91828        5.32929       -3.42457
C          0.48394        2.56326       -6.52813
H         -1.08751        4.45113       -5.33710
H         -1.78087        3.44764       -3.99248
H          1.03722        1.50507       -4.73121
H         -0.72336        1.67860       -4.94967
H          0.43749        1.63706       -7.14514
H          1.47673        3.03226       -6.68133
H         -0.29261        3.23695       -6.94692
H         -0.71637        5.05707       -2.37799
H         -1.90777        5.82688       -3.49579
H         -0.16250        6.02836       -3.81038
H          3.53354        4.23675       -1.89110
C          3.48146        5.02133       -3.81390
C          2.99627        3.96956       -2.81127
C          3.01030        6.44519       -3.50604
H          4.59820        5.02030       -3.78635
H          3.15691        4.72765       -4.83178
H          1.91189        6.48226       -3.55335
H          3.33050        6.76157       -2.48882
C          3.58013        7.42449       -4.53428
H          3.45108        3.03337       -3.17219
H          4.68938        7.45253       -4.46795
H          3.28997        7.11655       -5.56208
H          3.18830        8.44638       -4.34841
C          6.50155       -0.65240       -3.63616
C          7.02995        0.58506       -3.30907
C          6.04133        1.27972       -2.61540
C          4.95873        0.50086       -2.49680
N          5.17308       -0.73395       -3.15414
C          3.69937        0.86093       -1.73373
N          3.34120       -0.06295       -0.63071
C          4.43644       -0.28043        0.41421
H          8.02258        0.92898       -3.53734
H          7.02222       -1.43171       -4.15583
H          6.15440        2.27185       -2.18927
H          2.85159        0.89189       -2.44956
H          3.79117        1.87564       -1.32015
C          4.94055        1.02664        1.06491
C          3.91842       -1.15913        1.54963
C          5.67989       -1.05154       -0.11884
H          4.16667        1.44417        1.72890
H          5.79307        0.82596        1.74506
H          5.28762        1.76727        0.31632
H          3.52497       -2.12309        1.16529
H          4.72191       -1.38389        2.28616
H          3.18516       -0.59276        2.12785
H          5.39227       -2.00913       -0.60557
H          6.33434       -0.46943       -0.77760
H          6.37451       -1.29603        0.71539
