78
speciation39.ct
Mg         1.21549       -0.04565       -0.14882
H          0.89062       -2.03838        1.64072
C         -1.17681       -1.43618        1.84881
C          0.29437       -1.10847        1.54623
C         -1.78499       -2.49787        0.92931
H         -1.22562       -1.82573        2.89099
H         -1.78469       -0.51104        1.80947
H         -1.76971       -2.15709       -0.12197
H         -1.19718       -3.43767        1.00286
C         -3.23151       -2.78576        1.34009
H          0.59875       -0.44040        2.37255
H         -3.27043       -3.17262        2.38163
H         -3.84567       -1.86056        1.27995
H         -3.67359       -3.54765        0.66465
C         -3.81421        1.63529       -3.74689
C         -2.74657        1.85498       -4.58810
C         -1.61045        1.34754       -3.96956
C         -1.97769        0.85799       -2.77835
N         -3.37419        0.97675       -2.58746
C         -1.05126        0.27204       -1.73961
N         -0.02441        1.21138       -1.22968
C         -0.54188        2.44083       -0.51209
H         -2.79371        2.34788       -5.54959
H         -4.83885        1.93185       -3.93685
H         -0.60832        1.38444       -4.35281
H         -0.53798       -0.59683       -2.19790
H         -1.65165       -0.10422       -0.89431
C         -1.33730        2.08286        0.75598
C          0.65200        3.33196       -0.13330
C         -1.41743        3.37779       -1.39310
H         -0.71052        1.50254        1.45734
H         -1.67524        3.00412        1.27925
H         -2.25498        1.51155        0.50366
H          1.19208        3.67922       -1.03691
H          0.31843        4.22992        0.43500
H          1.36596        2.81199        0.48684
H         -0.90060        3.63600       -2.34244
H         -2.42049        2.98359       -1.59963
H         -1.62578        4.33373       -0.86258
Mg         0.74012        2.23259       -2.75701
H          1.70834        2.56420       -5.15198
C          2.76929        4.11631       -4.03440
C          1.52385        3.27946       -4.32271
C          3.95772        3.27347       -3.56916
H          3.05086        4.64558       -4.97048
H          2.53167        4.88048       -3.26250
H          4.18689        2.49682       -4.33100
H          4.84552        3.93480       -3.46810
C          3.69873        2.62466       -2.21288
H          0.71008        3.97012       -4.62915
H          3.52871        3.40031       -1.43979
H          2.80691        1.97060       -2.25692
H          4.58128        2.02182       -1.91813
C          2.02586        1.93761        3.05279
C          2.68287        1.31203        4.08376
C          3.41407        0.26808        3.53498
C          3.19931        0.25627        2.21837
N          2.33999        1.29632        1.84963
C          3.76162       -0.73291        1.24837
N          3.25512       -0.46699       -0.11994
C          3.82318       -1.37312       -1.16594
H          2.62102        1.59389        5.12404
H          1.36298        2.78910        3.13534
H          4.03177       -0.43263        4.08018
H          3.44122       -1.73474        1.58746
H          4.86378       -0.64772        1.29241
C          3.52698       -2.85609       -0.86669
C          3.17404       -1.02324       -2.51758
C          5.35401       -1.18673       -1.31766
H          2.43137       -3.02353       -0.75242
H          3.90095       -3.50057       -1.69350
H          4.04696       -3.20004        0.05370
H          3.47920       -0.01917       -2.85645
H          3.50160       -1.73351       -3.30823
H          2.06753       -1.06142       -2.44323
H          5.60514       -0.12514       -1.53703
H          5.91098       -1.49570       -0.41098
H          5.74612       -1.80647       -2.15487
