93
speciation66.ct
Mg         0.86320        0.14791        0.21950
C         -1.23131        2.15901        1.10430
C          0.67900        3.06965        0.10442
O          0.14907        1.95967        0.80701
C         -2.15123        2.58224       -0.05731
C          0.82420        4.32304        0.97246
H         -1.60765        1.21933        1.47569
H         -1.34241        2.86686        1.95642
H          1.67946        2.81622       -0.16718
H          0.17175        3.26266       -0.86118
H          1.41210        4.09830        1.88667
H          1.36402        5.10218        0.39364
H         -0.16235        4.73047        1.26707
H         -2.06985        1.86568       -0.89851
H         -3.20430        2.60739        0.29453
H         -1.92113        3.61068       -0.40893
H         -0.75744        0.02520       -2.07541
C          0.96523       -1.15361       -2.66585
C          0.33659        0.01253       -1.89912
C          0.44511       -2.46282       -2.11221
H          0.73749       -1.06785       -3.75282
H          2.06942       -1.14722       -2.55856
H          0.70740       -2.50359       -1.03752
H         -0.65724       -2.50687       -2.22825
C          1.07149       -3.64944       -2.82725
H          0.74061        0.94976       -2.34557
H          0.75872       -3.67948       -3.88976
H          2.17267       -3.56929       -2.80941
H          0.75690       -4.58335       -2.31672
C          1.06731       -2.49770        1.67110
C          0.68656       -3.41713        2.63129
C         -0.45250       -2.92745        3.20755
C         -0.72735       -1.72543        2.57167
N          0.24821       -1.41369        1.64052
C         -1.93727       -0.93563        2.95018
N         -2.84759       -0.70625        1.81725
C         -3.58830       -1.83491        1.21798
H          1.18025       -4.34318        2.89298
H          1.93724       -2.60820        1.04671
H         -1.02543       -3.39478        3.99867
H         -2.49742       -1.42573        3.78079
H         -1.60747        0.03643        3.36168
C         -4.38819       -2.64069        2.26429
C         -4.57808       -1.21032        0.22038
C         -2.65377       -2.76932        0.42558
H         -5.08307       -1.97538        2.82453
H         -4.99047       -3.42948        1.76376
H         -3.71874       -3.15016        2.98793
H         -4.03117       -0.60649       -0.53621
H         -5.16110       -1.99587       -0.30721
H         -5.28757       -0.53947        0.75052
H         -2.06082       -2.18210       -0.30633
H         -1.96292       -3.32801        1.07988
H         -3.23857       -3.53473       -0.12130
Mg         3.65101       -1.74450       -0.44350
H          3.44660       -4.23582       -1.25182
C          5.12439       -4.37563        0.06187
C          4.30644       -3.60349       -0.96903
C          4.31904       -4.68642        1.32548
H          5.44796       -5.33300       -0.40454
H          6.02775       -3.78508        0.32572
H          4.02203       -3.74089        1.81826
H          3.40174       -5.25800        1.06294
C          5.14887       -5.51577        2.30305
H          4.94482       -3.45363       -1.86424
H          5.42860       -6.48756        1.84163
H          6.07380       -4.96922        2.58558
H          4.55831       -5.71705        3.22127
C          7.06009        1.54671       -1.57377
C          6.98486        0.19995       -1.85375
C          5.65683       -0.18001       -1.73855
C          4.95258        0.89026       -1.38076
N          5.77753        2.03645       -1.29512
C          3.48455        0.93636       -1.06508
N          3.01165        0.06892        0.06915
C          3.68299        0.41547        1.40837
H          7.82443       -0.43776       -2.09206
H          7.96210        2.14413       -1.55418
H          5.26296       -1.17068       -1.87422
H          2.96052        0.68083       -1.99138
H          3.29777        1.98880       -0.88616
C          3.34198        1.84466        1.88090
C          3.21947       -0.52977        2.52387
C          5.23448        0.26728        1.42911
H          2.25730        1.93452        2.06002
H          3.84470        2.07235        2.84691
H          3.68035        2.62118        1.16765
H          3.49854       -1.57307        2.28964
H          3.71746       -0.28294        3.48974
H          2.14508       -0.41223        2.72110
H          5.55377       -0.73896        1.08403
H          5.76941        1.05697        0.89067
H          5.63158        0.41035        2.45906
