93
speciation65.ct
Mg         1.03818       -0.14654        0.13046
C          0.86455        0.35586        2.84258
C         -1.03040        1.12539        1.61695
O          0.36289        0.85862        1.60644
C          0.14029       -0.85689        3.44218
C         -1.37776        2.35213        2.45983
H          1.90602        0.03008        2.65993
H          0.94097        1.17815        3.58438
H         -1.35040        1.33292        0.57416
H         -1.62360        0.26914        1.96892
H         -0.84369        3.24579        2.07744
H         -2.47292        2.53299        2.41449
H         -1.11041        2.18869        3.52440
H          0.10380       -1.69067        2.71434
H          0.69731       -1.19621        4.34075
H         -0.88321       -0.60314        3.78410
H          1.15797        0.10656       -2.44903
C          1.42011        2.17711       -2.00462
C          0.74261        0.82996       -1.72712
C          1.10511        2.73727       -3.41196
H          1.05866        2.90660       -1.25135
H          2.52099        2.06956       -1.89145
H          0.00559        2.84242       -3.53274
H          1.55803        3.74942       -3.49759
C          1.65975        1.89333       -4.56655
H         -0.35167        0.93443       -1.83424
H          2.76734        1.83214       -4.50664
H          1.23336        0.87028       -4.56981
H          1.39132        2.37001       -5.53486
C          0.99957       -3.21088        0.20541
C          0.22298       -4.35273        0.13954
C         -1.06630       -3.93132       -0.01630
C         -1.02766       -2.55195       -0.06190
N          0.24979       -2.08526        0.08693
C         -2.25926       -1.74457       -0.24609
N         -2.30756       -0.85718       -1.42451
C         -2.15846       -1.49986       -2.78510
H          0.54387       -5.38564        0.18854
H          2.06759       -3.23808        0.33317
H         -1.94579       -4.55661       -0.10919
H         -3.11863       -2.44582       -0.28658
H         -2.44557       -1.13830        0.65017
C         -3.31812       -2.47040       -3.08052
C         -2.18113       -0.39130       -3.85961
C         -0.82958       -2.28397       -2.99994
H         -4.29418       -1.94705       -3.02088
H         -3.21813       -2.89302       -4.10573
H         -3.31848       -3.32524       -2.37368
H         -1.39002        0.36217       -3.68553
H         -1.99222       -0.81919       -4.87120
H         -3.16224        0.12383       -3.88752
H          0.06114       -1.67611       -2.79307
H         -0.77230       -3.21752       -2.42316
H         -0.75067       -2.63462       -4.05234
Mg        -4.25293       -1.03454       -1.04478
H         -6.50040       -2.27326       -0.88269
C         -7.19901       -0.29372       -1.40793
C         -6.24717       -1.21636       -0.65551
C         -6.92881        1.18423       -1.10999
H         -7.11666       -0.48203       -2.49951
H         -8.23746       -0.53439       -1.08948
H         -7.69494        1.79464       -1.63542
H         -7.02491        1.37337       -0.01807
C         -5.54705        1.62387       -1.58841
H         -6.35808       -1.06298        0.43904
H         -4.75097        1.06347       -1.05739
H         -5.45032        1.45263       -2.68172
H         -5.40983        2.70511       -1.38051
C          3.83845       -1.06044       -0.21985
C          5.15886       -0.71597       -0.04336
C          5.16624        0.52269        0.55196
C          3.84162        0.88175        0.72412
N          3.02707       -0.10733        0.27670
C          3.37641        2.19755        1.29995
N          4.42603        3.22079        1.14275
C          4.09368        4.60055        1.56794
H          6.03002       -1.29086       -0.33814
H          3.50029       -1.96053       -0.70191
H          6.04027        1.09636        0.82145
H          2.47055        2.49385        0.74010
H          3.12511        2.05848        2.37248
C          3.99102        4.69286        3.10224
C          5.24594        5.51563        1.10543
C          2.78486        5.10842        0.92229
H          4.93634        4.34568        3.57287
H          3.81065        5.74468        3.41878
H          3.15600        4.07540        3.48863
H          5.40744        5.42116        0.00999
H          5.02557        6.58365        1.33196
H          6.19484        5.24763        1.61863
H          2.83458        5.02369       -0.18345
H          1.90365        4.54648        1.29339
H          2.61117        6.17623        1.18551
