78
speciation13.ct
Mg        -1.80843        4.99682       -1.19116
H         -2.90218        7.38676       -0.14753
C         -1.47656        6.75415        1.32419
C         -2.55316        6.42758        0.29031
C         -0.33548        7.55680        0.68107
H         -1.91107        7.37683        2.14462
H         -1.11538        5.80150        1.75626
H         -0.01023        7.09766       -0.27615
H         -0.72856        8.57520        0.45894
C          0.89636        7.66175        1.58607
H         -3.42996        5.96696        0.79182
H          1.37552        8.65725        1.46776
H          0.65172        7.50216        2.65742
H          1.63980        6.89428        1.27874
C         -0.01261        2.86176       -2.22299
C          0.44469        1.56046       -2.10827
C         -0.20040        1.01819       -1.02758
C         -1.02397        2.01074       -0.53031
N         -0.90416        3.15410       -1.25666
C         -1.91458        1.85624        0.65774
N         -2.31500        0.44098        0.87188
C         -3.23202        0.25766        2.03426
H          1.16464        1.05598       -2.74176
H          0.30036        3.55607       -2.99471
H         -0.08344        0.00977       -0.64541
H         -1.35923        2.26389        1.52509
H         -2.80141        2.48573        0.45776
C         -4.53696        1.07947        1.87346
C         -3.62002       -1.22833        2.09522
C         -2.55928        0.63590        3.37459
H         -5.04241        0.83253        0.91550
H         -5.24163        0.85908        2.70445
H         -4.35375        2.17261        1.91197
H         -2.71786       -1.86114        2.22978
H         -4.30883       -1.41876        2.94897
H         -4.13371       -1.53723        1.16015
H         -1.64798        0.02626        3.54630
H         -2.28777        1.70988        3.41793
H         -3.26201        0.45882        4.21908
Mg        -3.54504        0.10899       -0.65681
H         -2.14833        5.44966       -3.82323
C         -3.24457        7.12856       -2.99237
C         -2.81480        5.66043       -2.95833
C         -2.03952        8.06852       -2.87785
H         -3.78777        7.34017       -3.94016
H         -3.94846        7.30085       -2.15271
H         -1.46327        7.82095       -1.96765
H         -1.37270        7.94067       -3.75808
C         -2.47876        9.52835       -2.78171
H         -3.71944        5.02531       -3.06097
H         -3.01778        9.83772       -3.70184
H         -3.14401        9.67271       -1.90286
H         -1.58644       10.17731       -2.65381
C         -5.49380        0.67324       -2.88297
C         -6.26330        0.03283       -3.83131
C         -6.00941       -1.31790       -3.70296
C         -5.08196       -1.43974       -2.69137
N         -4.77508       -0.22300       -2.18549
C         -4.51068       -2.71654       -2.17019
N         -3.82097       -3.40138       -3.26378
C         -3.13119       -4.66718       -2.91030
H         -6.95254        0.49754       -4.52157
H         -5.46741        1.74111       -2.69225
H         -6.44878       -2.11841       -4.28207
H         -3.80678       -2.46235       -1.35375
H         -5.34500       -3.33304       -1.78243
C         -4.11751       -5.73082       -2.39768
C         -2.47017       -5.18899       -4.19695
C         -2.02528       -4.41904       -1.86378
H         -4.91017       -5.92046       -3.16749
H         -3.58668       -6.69239       -2.20831
H         -4.60657       -5.42521       -1.45983
H         -1.76378       -4.43651       -4.60603
H         -1.90953       -6.12617       -3.99806
H         -3.23761       -5.40139       -4.97187
H         -1.32158       -3.63674       -2.22537
H         -2.44551       -4.10701       -0.88737
H         -1.45155       -5.35478       -1.68479
