93
speciation59.ct
Mg         0.90189       -0.16199        0.06792
C          3.64088       -1.40246        0.30038
C          3.58443        1.00283        0.32319
O          2.89338       -0.21404        0.05204
C          4.54757       -1.42900        1.54354
C          4.71251        1.30460       -0.67883
H          2.91324       -2.23594        0.41606
H          4.24928       -1.65020       -0.60154
H          2.84299        1.82634        0.26199
H          3.96223        1.03887        1.36323
H          4.35299        1.41689       -1.71308
H          5.18449        2.27191       -0.42362
H          5.48913        0.51341       -0.66927
H          3.97448       -1.15997        2.45399
H          4.97153       -2.44750        1.67732
H          5.41137       -0.73917        1.42539
H         -1.17069       -1.88668       -0.13151
C         -0.00232       -3.45427        0.77492
C         -0.10389       -2.19436       -0.09350
C         -0.53702       -3.30252        2.19597
H         -0.61146       -4.24670        0.27791
H          1.05398       -3.79735        0.79687
H          0.07374       -2.57145        2.74965
H         -1.59733       -2.96375        2.16666
C         -0.46371       -4.63915        2.93133
H          0.12472       -2.63279       -1.06765
H         -1.08778       -5.40245        2.41738
H          0.58745       -4.99796        2.96694
H         -0.83470       -4.51776        3.96989
C         -1.59079        4.08641       -4.12106
C         -0.38651        4.70419       -4.35753
C          0.50794        4.23786       -3.39689
C         -0.12313        3.35552       -2.61645
N         -1.47022        3.23631       -3.01214
C          0.48622        2.54348       -1.47992
N          0.27123        1.06536       -1.55645
C          0.76418        0.47126       -2.90345
H         -0.18973        5.40406       -5.16247
H         -2.50001        4.21494       -4.70257
H          1.55615        4.50870       -3.33767
H         -0.08512        2.90463       -0.62842
H          1.56106        2.78735       -1.36891
C          2.27156        0.68019       -3.12814
C          0.54903       -1.03963       -2.97104
C          0.07025        0.98179       -4.20680
H          2.82451        0.13060       -2.35268
H          2.59671        0.24419       -4.10078
H          2.54127        1.75348       -3.15110
H         -0.51537       -1.30445       -2.80770
H          0.83159       -1.45793       -3.96686
H          1.25469       -1.52628       -2.28261
H         -1.01350        0.84707       -4.14886
H          0.34758        1.99291       -4.52880
H          0.40806        0.40562       -5.09760
Mg        -1.71877        1.06536       -1.55645
H         -1.04891        0.29883        1.77707
C          0.24460        1.65758        2.83955
C          0.03877        0.39717        1.99402
C         -0.10033        2.90952        2.05472
H         -0.40586        1.59187        3.74215
H          1.30393        1.71080        3.16634
H          0.63416        2.96411        1.24293
H         -1.14776        2.84922        1.67459
C          0.06277        4.18709        2.86215
H          0.33463       -0.43950        2.65004
H         -0.62995        4.20054        3.72859
H          1.11162        4.27612        3.21486
H         -0.16448        5.05528        2.20587
C         -7.39789        3.87396       -1.23034
C         -7.44017        3.03703       -0.13836
C         -6.19876        2.42826       -0.02948
C         -5.43180        2.87105       -1.03104
N         -6.13582        3.79980       -1.83152
C         -3.99867        2.50113       -1.30864
N         -3.70877        1.06536       -1.55645
C         -4.38664        0.41637       -2.72888
H         -8.28903        2.89765        0.51246
H         -8.20670        4.50109       -1.58001
H         -5.90099        1.71259        0.72632
H         -3.39643        2.82099       -0.43572
H         -3.67824        3.10440       -2.17213
C         -4.11137        1.15280       -4.05794
C         -3.85563       -1.02323       -2.83593
C         -5.92150        0.31169       -2.56241
H         -3.04060        1.21394       -4.26653
H         -4.58515        0.60868       -4.90786
H         -4.52390        2.18043       -4.05549
H         -4.07560       -1.58432       -1.90159
H         -4.34315       -1.55977       -3.68071
H         -2.76502       -1.02593       -3.00806
H         -6.18873       -0.17096       -1.59934
H         -6.42584        1.29035       -2.63618
H         -6.36891       -0.28680       -3.38856
