93
speciation69.ct
Mg         0.93660        0.31981       -0.46473
C         -0.37787       -1.48335       -2.67064
C          0.57765        0.54601       -3.50976
O          0.16971       -0.18963       -2.35570
C          0.19935       -2.25325       -3.89659
C         -0.60763        1.00014       -4.39288
H         -0.19999       -2.13685       -1.79686
H         -1.47708       -1.39552       -2.80077
H          1.17866        1.40763       -3.16623
H          1.30459        0.00043       -4.14071
H         -1.40271        1.51319       -3.83526
H         -0.24011        1.68691       -5.18393
H         -1.11191        0.14680       -4.87860
H          1.29477       -2.35986       -3.87636
H         -0.21680       -3.28042       -3.92315
H         -0.05761       -1.77464       -4.86095
H          0.85145       -2.05358        0.87379
C         -1.04226       -1.55181        1.61138
C          0.34268       -1.11642        1.13081
C         -1.80501       -2.27382        0.50244
H         -0.91224       -2.25520        2.46901
H         -1.61173       -0.66902        1.96775
H         -1.95600       -1.56563       -0.33482
H         -1.22087       -3.15412        0.14758
C         -3.16430       -2.76750        0.98285
H          0.86998       -0.69840        2.01575
H         -3.04246       -3.53460        1.77801
H         -3.76180       -1.91967        1.37754
H         -3.70906       -3.22469        0.12992
C          2.90999        5.03392        2.07529
C          3.50325        4.32820        1.05862
C          2.65682        3.28908        0.75255
C          1.57461        3.40336        1.60398
N          1.73028        4.48227        2.39751
C          0.36118        2.55033        1.55889
N         -0.03037        2.28800        0.16309
C         -0.58454        3.51221       -0.55383
H          4.43547        4.54830        0.55947
H          3.31245        5.92139        2.53766
H          2.77084        2.55903       -0.02079
H         -0.46354        3.00370        2.15659
H          0.57499        1.58277        2.04872
C          0.44215        4.63872       -0.82794
C         -1.09379        3.06642       -1.90112
C         -1.81241        4.14947        0.16535
H          1.33496        4.24985       -1.35928
H         -0.00065        5.43702       -1.47169
H          0.74020        5.17703        0.08804
H         -1.86336        2.27528       -1.78437
H         -1.51794        3.90939       -2.49691
H         -0.22300        2.72125       -2.44205
H         -2.62314        3.40998        0.31856
H         -1.54272        4.62055        1.13158
H         -2.23001        4.97652       -0.46301
Mg         0.49635        5.14599        3.70016
H         -1.42433        6.70187        4.32559
C          0.23372        7.06450        5.69891
C         -0.69311        6.13257        4.93867
C          1.03726        7.94268        4.73278
H         -0.37027        7.69911        6.38221
H          0.93571        6.44598        6.29887
H          1.63658        7.30389        4.04595
H          0.34433        8.56296        4.12367
C          1.98481        8.86082        5.49899
H         -1.23225        5.45654        5.63501
H          1.41050        9.50761        6.19606
H          2.71686        8.25949        6.07924
H          2.54024        9.50788        4.78809
C          7.45130        0.60537        1.30593
C          7.11446        1.68777        0.52525
C          5.73786        1.67670        0.36737
C          5.24398        0.62558        1.02786
N          6.28213       -0.09196        1.66194
C          3.77719        0.21793        1.06966
N          3.18272       -0.00468       -0.28266
C          3.75861       -1.22714       -0.96848
H          7.80702        2.40195        0.10435
H          8.45524        0.32923        1.59906
H          5.16762        2.37951       -0.21661
H          3.21873        1.00410        1.59821
H          3.65305       -0.67727        1.71287
C          3.65829       -2.54398       -0.14656
C          2.96674       -1.41602       -2.22087
C          5.23063       -1.07724       -1.42972
H          2.62903       -2.77816        0.14269
H          3.99884       -3.40785       -0.76024
H          4.29915       -2.53139        0.75639
H          3.03301       -0.50554       -2.85017
H          3.30692       -2.29540       -2.80689
H          1.95264       -1.60445       -1.87446
H          5.37714       -0.15148       -2.02510
H          5.95131       -1.11635       -0.59914
H          5.51863       -1.94301       -2.06987
