108
speciation146.ct
Li         1.93834        0.77882       -3.94390
C          1.74040        3.73912       -4.86179
C         -0.26317        2.49629       -4.45274
O          1.13485        2.45446       -4.63543
C          1.24816        4.89761       -3.96835
C         -1.00199        2.70403       -5.78101
H          2.81571        3.66124       -4.66668
H          1.65512        4.02850       -5.93206
H         -0.55445        1.53608       -3.99407
H         -0.58313        3.22796       -3.68716
H         -0.71020        1.96417       -6.55098
H         -2.09334        2.62092       -5.60256
H         -0.77220        3.69774       -6.20973
H          1.29603        4.60932       -2.89789
H          1.88086        5.79874       -4.12037
H          0.21125        5.19595       -4.23487
H          0.57846        0.07125        1.38253
C          0.68181       -1.00615        3.24534
C         -0.17760       -0.37285        2.06363
C          1.69818       -2.09640        2.85275
H          1.28543       -0.20092        3.72778
H          0.04184       -1.40520        4.05967
H          2.42666       -1.67443        2.13027
H          2.27646       -2.43169        3.75024
C          1.02153       -3.31544        2.25674
H         -0.71856        0.46054        2.55803
H          0.39083       -3.82216        3.01835
H          0.39439       -2.98725        1.41458
H          1.78447       -4.03015        1.88252
C         -0.88500       -3.90075       -0.64203
C         -0.00487       -4.53709       -1.49214
C          0.54751       -3.56876       -2.26233
C         -0.07717       -2.38125       -1.92514
N         -0.92808       -2.56173       -0.86137
C          0.20226       -1.07343       -2.63641
N          1.02629       -1.18711       -3.88415
C          0.33906       -1.74781       -5.12996
H          0.22774       -5.59310       -1.53929
H         -1.43345       -4.42843        0.10070
H          1.31434       -3.72831       -3.00817
H          0.73016       -0.40965       -1.92809
H         -0.76327       -0.57813       -2.86254
C         -0.80840       -0.84676       -5.55768
C          1.36142       -1.82870       -6.28960
C         -0.27698       -3.17614       -5.02090
H         -0.38592        0.14280       -5.65119
H         -1.23097       -1.14981       -6.54078
H         -1.63907       -0.85996       -4.82239
H          2.21958       -2.47703       -6.01037
H          0.89495       -2.28450       -7.19807
H          1.74057       -0.82836       -6.57739
H          0.48254       -3.97525       -4.90949
H         -1.05784       -3.23843       -4.23675
H         -0.80195       -3.44788       -5.96550
Li        -2.00586       -1.12186        0.45410
C          3.29050        1.05336       -1.46471
C          4.51341        2.07421       -3.17246
O          3.55465        1.07087       -2.86030
C          2.50080        2.27239       -0.97380
C          5.00228        1.93007       -4.60505
H          2.71571        0.13752       -1.24725
H          4.22706        0.93158       -0.87282
H          4.10863        3.09585       -3.01716
H          5.41896        1.96198       -2.53012
H          4.17093        2.05964       -5.32350
H          5.77502        2.70428       -4.80846
H          5.44834        0.92651       -4.75328
H          1.58245        2.40757       -1.58061
H          2.21488        2.12279        0.08901
H          3.11557        3.19611       -1.02083
H         -3.14413        1.42740       -0.17429
C         -3.81462        0.51665       -2.02569
C         -2.74401        0.68673       -0.90011
C         -4.24407        1.83416       -2.74261
H         -3.41595       -0.18028       -2.79106
H         -4.72934        0.07929       -1.58154
H         -4.69607        2.54015       -2.01113
H         -3.36966        2.33359       -3.21312
C         -5.28809        1.58258       -3.84983
H         -1.84394        1.14053       -1.37145
H         -4.87173        0.93372       -4.65015
H         -6.20315        1.10342       -3.43921
H         -5.59579        2.54351       -4.32256
C         -8.35674       -3.07757        2.44312
C         -8.29860       -1.73960        2.75752
C         -7.11828       -1.24497        2.19884
C         -6.48175       -2.25256        1.57241
N         -7.23883       -3.44081        1.68019
C         -5.14428       -2.19662        0.80402
N         -3.91276       -1.79850        1.57361
C         -3.64998       -2.59906        2.81186
H         -9.04229       -1.19363        3.33600
H         -9.17351       -3.74868        2.74754
H         -6.78617       -0.22524        2.27007
H         -5.29048       -1.48205       -0.02147
H         -4.97659       -3.19368        0.34612
C         -3.42713       -4.09146        2.48985
C         -2.38939       -2.04805        3.41785
C         -4.73239       -2.48593        3.91890
H         -2.62697       -4.18147        1.75130
H         -3.11314       -4.64756        3.39920
H         -4.34382       -4.56587        2.09023
H         -2.51504       -0.96581        3.65539
H         -2.09738       -2.58686        4.34523
H         -1.60639       -2.20612        2.66941
H         -4.97800       -1.42255        4.13158
H         -5.65372       -3.05292        3.70177
H         -4.37213       -2.94832        4.86566
