93
speciation107.ct
Mg         0.29135        1.08016       -0.12606
C          1.29675        2.80298       -2.24147
C          0.96417        4.21767       -0.42453
O          1.02118        2.85413       -0.84528
C          2.76335        3.13224       -2.55802
C          0.55216        4.38959        1.02054
H          1.09551        1.77863       -2.58744
H          0.61500        3.46403       -2.83718
H          1.98074        4.67780       -0.48343
H          0.25838        4.82368       -1.04731
H          1.26736        3.86215        1.68309
H          0.57928        5.47653        1.27023
H         -0.47880        4.01582        1.17072
H          3.43068        2.49498       -1.94258
H          2.97144        2.94961       -3.63302
H          3.00080        4.20001       -2.36287
H         -0.39175       -3.77935        0.45532
C         -2.52785       -3.66904        0.28223
C         -1.17712       -3.02066        0.61360
C         -2.74168       -4.07821       -1.18157
H         -2.63918       -4.57273        0.92059
H         -3.33844       -2.97236        0.56367
H         -3.75827       -4.52515       -1.25207
H         -2.71531       -3.19288       -1.84653
C         -1.73718       -5.11499       -1.67411
H         -1.20320       -2.79235        1.69490
H         -0.71620       -4.68517       -1.71216
H         -1.74158       -6.00592       -1.01128
H         -2.01894       -5.43453       -2.70006
C         -4.43579       -1.61044        2.96395
C         -5.25468       -0.50681        3.01367
C         -4.54140        0.56799        2.50981
C         -3.32536        0.13250        2.14368
N         -3.18320       -1.24184        2.43363
C         -2.25057        0.98492        1.49865
N         -1.74941        0.48638        0.16529
C         -2.79386        0.70565       -0.90606
H         -6.28295       -0.49834        3.36163
H         -4.70825       -2.61046        3.26403
H         -4.91047        1.57756        2.39990
H         -1.49435        1.10123        2.21847
H         -2.57462        2.04239        1.44747
C         -3.34370        2.15808       -0.91889
C         -2.16203        0.46804       -2.25753
C         -3.99811       -0.27883       -0.81051
H         -2.50702        2.88651       -0.96870
H         -4.00565        2.31610       -1.79461
H         -3.98623        2.37990       -0.04055
H         -1.91213       -0.58628       -2.31199
H         -2.88397        0.65678       -3.07916
H         -1.27243        1.11110       -2.39043
H         -3.66332       -1.32439       -0.90891
H         -4.60127       -0.20270        0.10171
H         -4.72568       -0.08052       -1.62525
Mg        -0.40894       -1.19775       -0.19934
H          0.78623       -2.73178       -2.29615
C          0.76765       -1.00782       -3.52588
C          0.12014       -1.86469       -2.41551
C          1.02497       -1.81816       -4.81616
H          0.11394       -0.15022       -3.76892
H          1.74235       -0.61951       -3.18385
H          1.68719       -2.68547       -4.59731
H          0.06646       -2.20355       -5.22763
C          1.70699       -0.95636       -5.88130
H         -0.80912       -2.29407       -2.84355
H          1.06227       -0.09389       -6.15274
H          2.68139       -0.57631       -5.50471
H          1.89775       -1.55704       -6.79696
C          4.43655       -4.10754        0.73417
C          3.25838       -4.61387        0.24174
C          2.48768       -3.54336       -0.15989
C          3.14414       -2.40786        0.08657
N          4.42047       -2.69813        0.62777
C          2.62291       -0.99701       -0.13405
N          1.40748       -0.64192        0.66230
C          1.64435       -0.71680        2.16001
H          2.97703       -5.65701        0.20019
H          5.23802       -4.69624        1.15230
H          1.49855       -3.62262       -0.56068
H          2.41539       -0.86415       -1.19917
H          3.43937       -0.27424        0.08020
C          2.87595        0.11390        2.61950
C          0.45712       -0.12511        2.86163
C          1.77726       -2.15909        2.71509
H          2.78867        1.17084        2.28682
H          2.94968        0.10964        3.72951
H          3.82830       -0.30655        2.24535
H         -0.44050       -0.69557        2.54532
H          0.53342       -0.20352        3.96660
H          0.44987        0.95392        2.60881
H          0.93080       -2.79580        2.40101
H          2.71645       -2.65833        2.45541
H          1.79884       -2.14839        3.82646
