78
speciation24.ct
Mg         1.07787        0.46110        0.17320
H          2.28388       -0.73377        2.46784
C          2.42913        1.40992        2.55762
C          2.56019        0.10615        1.78876
C          0.96041        1.54552        2.95406
H          3.09424        1.43990        3.45200
H          2.72724        2.22933        1.86378
H          0.32948        1.36979        2.06524
H          0.71943        0.76648        3.72598
C          0.63365        2.92415        3.48934
H          3.62587       -0.04588        1.50234
H          1.23010        3.15869        4.38903
H          0.83484        3.68294        2.69557
H         -0.44599        2.95635        3.73473
C          1.54607        2.78058       -1.49214
C          1.08622        3.71724       -2.39457
C         -0.24999        3.46023       -2.56964
C         -0.56524        2.37348       -1.77043
N          0.55444        1.95533       -1.09898
C         -1.96309        1.76363       -1.73302
N         -2.63644        1.79909       -0.40659
C         -3.17005        3.09231        0.09280
H          1.66769        4.49510       -2.87752
H          2.57670        2.70452       -1.15755
H         -0.91969        4.00683       -3.22771
H         -2.60972        2.23793       -2.49818
H         -1.86002        0.71304       -2.04866
C         -3.97795        3.87542       -0.96901
C         -4.12477        2.75705        1.24428
C         -2.03597        3.96500        0.65181
H         -4.79161        3.24667       -1.39053
H         -4.44394        4.77414       -0.50594
H         -3.33175        4.24058       -1.79355
H         -3.57858        2.23007        2.04579
H         -4.58076        3.66964        1.68001
H         -4.94171        2.10128        0.88384
H         -1.46290        3.39291        1.41133
H         -1.34150        4.29569       -0.14214
H         -2.45048        4.87538        1.13653
Mg        -3.96615        0.35704        0.17591
H          1.48960       -2.13968       -0.11299
C         -0.40084       -1.84102       -1.13968
C          0.56703       -1.53396        0.00383
C          0.21635       -1.50235       -2.50370
H         -0.65715       -2.92216       -1.10890
H         -1.33218       -1.25683       -0.98945
H          0.45955       -0.42011       -2.54279
H          1.15421       -2.08221       -2.64904
C         -0.74012       -1.83540       -3.64954
H          0.09012       -1.79329        0.97234
H         -0.95375       -2.92556       -3.67339
H         -1.69592       -1.28174       -3.53679
H         -0.27811       -1.54663       -4.61780
C         -3.43009       -0.24248        3.19599
C         -3.84871       -1.30656        3.97610
C         -4.54357       -2.16436        3.14064
C         -4.50618       -1.57686        1.89517
N         -3.85100       -0.42224        1.93070
C         -5.14111       -1.98504        0.62054
N         -5.75107       -0.78155        0.03838
C         -7.11418       -0.42793        0.59843
H         -3.69246       -1.42166        5.03849
H         -2.88749        0.62516        3.54494
H         -5.03783       -3.08643        3.41602
H         -5.80397       -2.86268        0.71884
H         -4.32016       -2.27854       -0.06936
C         -7.08861       -0.11111        2.11239
C         -7.64728        0.81502       -0.13162
C         -8.13807       -1.56868        0.35973
H         -6.35458        0.68727        2.34061
H         -8.08877        0.22961        2.46009
H         -6.86473       -1.01197        2.71430
H         -7.74735        0.61920       -1.21943
H         -8.65576        1.08715        0.25931
H         -6.98345        1.68614        0.01767
H         -8.21858       -1.81643       -0.71998
H         -7.88751       -2.49466        0.91595
H         -9.14883       -1.27418        0.72286
