93
speciation87.ct
Mg         2.42283       -0.00481        1.13491
C          5.58510       -0.09450        0.71252
C          5.33309       -0.98070        2.82927
O          4.67639       -0.13580        1.81989
C          5.85991       -1.43428       -0.02046
C          6.79151       -0.62613        3.26882
H          5.23385        0.60056        0.00715
H          6.50506        0.46485        0.93229
H          4.72505       -1.06263        3.75402
H          5.47256       -2.00746        2.46956
H          6.82657        0.24582        3.94552
H          7.23549       -1.50039        3.80174
H          7.51421       -0.47891        2.44033
H          4.94791       -1.98611       -0.25947
H          6.33581       -1.22908       -0.99770
H          6.50090       -2.12937        0.55042
H          1.11114       -0.55954        3.68868
C         -0.55524        0.36454        2.63361
C          0.96365        0.24913        2.94398
C         -1.47470        0.53467        3.86698
H         -0.69765        1.26411        2.00906
H         -0.88846       -0.53791        2.08144
H         -1.37306       -0.33771        4.54734
H         -1.19495        1.45584        4.42149
C         -2.95640        0.65111        3.46144
H          1.26812        1.19698        3.43414
H         -3.11755        1.51307        2.77899
H         -3.30315       -0.27494        2.95351
H         -3.59435        0.80618        4.36022
C         -2.35240       -0.70442       -0.57287
C         -3.18613        0.33581       -0.23337
C         -2.39529        1.45313       -0.15258
C         -1.12217        1.03488       -0.47037
N         -1.08106       -0.27001       -0.69038
C          0.05101        1.91036       -0.70506
N          1.38582        1.46039       -0.18175
C          2.21876        2.76963       -0.13692
H         -4.25756        0.29015       -0.10580
H         -2.70213       -1.69258       -0.77255
H         -2.72203        2.46337        0.05263
H         -0.27759        2.91775       -0.37457
H          0.13127        1.97013       -1.81162
C          1.73755        3.77723        0.97416
C          3.66105        2.50204        0.19580
C          2.24594        3.54825       -1.49686
H          2.37834        4.69518        0.96013
H          1.80918        3.34195        1.99017
H          0.72079        4.19349        0.84772
H          4.09099        2.02632       -0.69502
H          4.24300        3.44356        0.34590
H          3.71719        1.93480        1.14224
H          2.63014        2.89263       -2.30736
H          1.25771        3.94496       -1.79965
H          2.91938        4.43746       -1.43746
Mg         0.72417       -0.60474       -1.10323
H         -0.76970       -2.50576       -2.81980
C         -0.78197       -3.86842       -1.12498
C         -0.07656       -2.73463       -2.00284
C         -1.06441       -5.27709       -1.69450
H         -0.24893       -4.13292       -0.21270
H         -1.75065       -3.48435       -0.80008
H         -1.71963       -5.79357       -0.94934
H         -1.61367       -5.22659       -2.65147
C          0.17593       -6.17320       -1.80212
H          0.80562       -3.15421       -2.51385
H          0.89009       -5.77424       -2.54722
H          0.67641       -6.26962       -0.81008
H         -0.12336       -7.19988       -2.10136
C          4.80492       -0.97078       -4.60634
C          4.16556       -2.17812       -4.72783
C          3.42246       -2.39582       -3.55477
C          3.60213       -1.34864       -2.73201
N          4.47043       -0.41573       -3.36834
C          3.05839       -0.94286       -1.34393
N          2.22312       -1.51592       -0.21598
C          2.27544       -2.82304        0.54594
H          4.24956       -2.81676       -5.60055
H          5.46337       -0.50770       -5.33983
H          2.81186       -3.26102       -3.38797
H          2.46468       -0.08284       -1.70108
H          3.79032       -0.31505       -0.93583
C          3.34195       -2.99484        1.63896
C          0.98039       -2.83519        1.38505
C          2.50596       -4.05416       -0.34593
H          3.27338       -2.17504        2.36801
H          3.13059       -3.90879        2.24577
H          4.34422       -3.23022        1.25473
H          0.11086       -2.43367        0.83927
H          0.78709       -3.82315        1.85353
H          1.05973       -2.12942        2.21719
H          1.75729       -4.23365       -1.07861
H          3.47247       -3.96504       -0.88434
H          2.54263       -4.98244        0.27006
