78
speciation26.ct
Mg         1.03500        0.28990       -0.91455
H          0.14343       -1.69536       -2.70454
C         -1.83381       -1.40350       -2.17110
C         -0.36139       -1.46723       -1.75478
C         -2.39240       -2.71360       -2.81212
H         -2.46124       -1.13165       -1.30310
H         -1.90575       -0.61005       -2.94411
H         -3.41152       -2.47899       -3.19871
H         -1.77569       -3.03784       -3.67868
C         -2.56167       -3.89922       -1.85354
H         -0.25870       -2.35156       -1.09393
H         -1.58431       -4.29956       -1.51718
H         -3.17511       -3.61000       -0.97374
H         -3.09761       -4.72416       -2.37829
C          0.55752        2.13107       -4.05999
C          0.16586        3.36338       -3.61105
C          0.50777        3.44223       -2.26382
C          1.08853        2.22700       -1.90144
N          1.09349        1.45527       -3.04457
C          1.63579        1.78864       -0.37418
N          0.71865        0.90354        0.49870
C          0.81697       -0.03431        1.73705
H         -0.34769        4.11313       -4.19650
H          0.38842        1.70883       -5.04809
H          0.30257        4.29101       -1.62200
H          2.67117        1.64433       -0.26198
H          1.92484        2.70852        0.12830
C          2.00646        0.32880        2.65398
C         -0.49101        0.15187        2.57509
C          0.78288       -1.52258        1.43838
H          1.96571        1.37387        2.99016
H          1.97072       -0.33223        3.55316
H          2.96483        0.15950        2.14612
H         -1.37470       -0.13889        1.95777
H         -0.50327       -0.52348        3.46111
H         -0.63550        1.17817        2.95176
H         -0.15549       -1.83123        0.93776
H          1.59755       -1.90183        0.85111
H          0.80529       -2.12439        2.37892
Mg         1.72748       -0.31153       -2.38384
H         -1.30345        2.88195       -0.39290
C          0.00650        3.48745        1.29710
C         -0.72157        2.36914        0.38981
C         -0.70238        4.62723        2.04638
H          0.65967        2.99178        2.05071
H          0.63581        4.09852        0.62725
H          0.10258        5.33392        2.37873
H         -1.36340        5.17756        1.35293
C         -1.41468        4.23915        3.33345
H         -1.50358        1.90894        1.02641
H         -2.24691        3.54331        3.12999
H         -0.70062        3.79027        4.05845
H         -1.81135        5.17064        3.79865
C          2.12989       -3.19114       -2.45418
C          2.82629       -4.27590       -1.95452
C          3.54570       -3.79915       -0.88588
C          3.26592       -2.45740       -0.81820
N          2.36147       -2.07833       -1.72311
C          3.91740       -1.42517       -0.05566
N          3.54548       -0.17507       -0.74114
C          4.59067        0.25250       -1.76344
H          2.85630       -5.26943       -2.37775
H          1.53708       -3.22684       -3.35896
H          4.26852       -4.35862       -0.30372
H          4.97981       -1.66041       -0.06406
H          3.64709       -1.47574        1.01927
C          4.67375       -0.72258       -2.96025
C          4.29705        1.64515       -2.32236
C          6.01801        0.39069       -1.13029
H          3.69195       -0.78648       -3.47079
H          5.41375       -0.36854       -3.70898
H          4.99383       -1.73843       -2.64978
H          4.26661        2.41877       -1.52666
H          5.06989        1.95639       -3.05397
H          3.37318        1.63194       -2.88966
H          5.99451        1.08329       -0.26193
H          6.50059       -0.55732       -0.82573
H          6.72893        0.80636       -1.87912
