78
speciation28.ct
Mg         0.60839       -0.20549        0.12996
H          0.84001       -2.68048       -0.89137
C         -1.30577       -2.67157       -0.59159
C          0.11157       -2.25940       -0.16753
C         -1.64330       -2.17043       -2.00021
H         -1.35983       -3.78398       -0.58916
H         -2.04201       -2.28154        0.14030
H         -1.61029       -1.06095       -2.01493
H         -0.89806       -2.56294       -2.72676
C         -3.03180       -2.64144       -2.43817
H          0.32082       -2.71489        0.82471
H         -3.07480       -3.75224       -2.47282
H         -3.80969       -2.27167       -1.73682
H         -3.25647       -2.25327       -3.45424
C         -1.17021        4.45688       -0.79959
C         -2.50770        4.25404       -1.07175
C         -2.86119        3.06687       -0.45536
C         -1.71745        2.60501        0.16118
N         -0.71261        3.45965       -0.02523
C         -1.54288        1.34772        0.95871
N         -0.12045        1.19284        1.35284
C          0.12216        1.01766        2.81184
H         -3.14995        4.90463       -1.64939
H         -0.57764        5.29358       -1.13203
H         -3.83543        2.60050       -0.45914
H         -1.82123        0.48229        0.32317
H         -2.24087        1.39663        1.81375
C         -0.65511       -0.17163        3.41707
C          1.61586        0.72964        3.02920
C         -0.22945        2.32372        3.55968
H         -0.39488       -1.11710        2.89813
H         -0.39045       -0.28236        4.49368
H         -1.75145       -0.02876        3.37960
H          2.21684        1.57941        2.68752
H          1.84494        0.58384        4.10679
H          1.93279       -0.17859        2.47228
H          0.33417        3.18055        3.12945
H         -1.30985        2.55994        3.48875
H          0.02969        2.24775        4.63736
Mg         0.81324        2.89665        0.90203
H          2.72533        1.20601       -0.51471
C          2.49073        0.10576       -2.36647
C          2.44732        0.18299       -0.83485
C          1.47877        1.03153       -3.06315
H          3.51693        0.36451       -2.71451
H          2.27694       -0.93870       -2.67563
H          1.57042        0.87569       -4.16342
H          0.44907        0.75440       -2.75671
C          1.71079        2.51827       -2.78203
H          3.20654       -0.50810       -0.41410
H          1.57038        2.75039       -1.70701
H          2.73383        2.82035       -3.09365
H          0.97578        3.12264       -3.35595
C          3.71862        3.25495        1.50680
C          4.62216        4.22615        1.86665
C          3.93222        5.41853        1.88117
C          2.63048        5.11877        1.53208
N          2.49952        3.79379        1.31886
C          1.48376        6.09212        1.41129
N          1.99233        7.42403        1.03917
C          0.97889        8.47185        0.77849
H          5.66661        4.07261        2.10178
H          3.94040        2.19787        1.40598
H          4.33460        6.39069        2.13331
H          0.82408        5.70749        0.62341
H          0.93199        6.11848        2.37314
C          0.17067        8.80221        2.04978
C          1.73470        9.73186        0.32886
C          0.00150        8.07888       -0.35456
H          0.85313        9.09818        2.87350
H         -0.53525        9.63935        1.85818
H         -0.43203        7.93115        2.38073
H          2.34068        9.51544       -0.57819
H          1.03100       10.55838        0.08613
H          2.41975       10.07974        1.13098
H          0.55653        7.80619       -1.27892
H         -0.64592        7.23659       -0.04492
H         -0.68071        8.92236       -0.59272
