93
speciation98.ct
Mg         0.99325        1.37874        0.37120
C          1.32907        1.78498        3.60823
C         -0.05630        3.20677        2.34209
O          1.02155        2.29354        2.28608
C          0.20635        0.99281        4.32919
C          0.22518        4.41100        3.24552
H          2.24405        1.19103        3.54845
H          1.72715        2.56476        4.28841
H         -0.19737        3.59317        1.31429
H         -1.00104        2.70046        2.63681
H          1.20330        4.86124        2.97364
H         -0.57891        5.16832        3.12986
H          0.24906        4.13323        4.31809
H         -0.34197        0.29349        3.66832
H          0.65152        0.39509        5.15817
H         -0.54131        1.67837        4.77268
H          3.00464       -2.17403       -3.32159
C          3.57656       -0.76697       -4.86105
C          3.02462       -1.07248       -3.45765
C          5.02899       -1.21056       -5.06639
H          2.93803       -1.30881       -5.59614
H          3.49274        0.32150       -5.06555
H          5.68326       -0.62631       -4.40037
H          5.14381       -2.29251       -4.83563
C          5.48599       -0.96652       -6.50681
H          1.97310       -0.71619       -3.45549
H          4.89379       -1.58821       -7.21370
H          5.36527        0.10434       -6.77865
H          6.55709       -1.23784       -6.61270
C         -1.95204        0.71281        0.12045
C         -2.58852       -0.47001       -0.21142
C         -1.59801       -1.41303       -0.41865
C         -0.39585       -0.75849       -0.21667
N         -0.62491        0.51365        0.13236
C          0.99171       -1.34520       -0.38021
N          2.05495       -0.33977       -0.06741
C          2.83265       -0.61209        1.13919
H         -3.65593       -0.62246       -0.30650
H         -2.43031        1.66260        0.31327
H         -1.73854       -2.44977       -0.69862
H          1.10279       -1.67977       -1.43127
H          1.07328       -2.26679        0.22947
C          3.75498       -1.81503        0.96596
C          3.65242        0.67588        1.35640
C          1.93080       -0.93163        2.33480
H          4.29160       -1.70599        0.02082
H          4.46531       -1.88776        1.82231
H          3.18926       -2.76640        0.91290
H          3.03491        1.55547        1.41865
H          4.30395        0.62349        2.25837
H          4.28831        0.86805        0.47993
H          1.09638       -0.23718        2.26852
H          1.45628       -1.93088        2.29600
H          2.50526       -0.91522        3.28371
Mg         3.57084       -0.41220       -1.48205
H          6.17325        0.03587       -2.41600
C          6.67398       -0.54419       -0.39046
C          5.72115        0.10431       -1.41712
C          6.97457       -2.04002       -0.61767
H          7.64361        0.00147       -0.41434
H          6.26076       -0.41225        0.63281
H          7.66676       -2.37541        0.18632
H          6.06847       -2.66900       -0.55048
C          7.63458       -2.30752       -1.96393
H          5.68892        1.19159       -1.19776
H          6.94040       -2.06148       -2.79079
H          8.56322       -1.70761       -2.06141
H          7.88810       -3.38520       -2.04177
C          0.68445        2.07902       -2.45377
C          0.92690        2.93167       -3.50546
C          1.59074        4.01073       -2.99099
C          1.71463        3.77919       -1.62793
N          1.14803        2.58980       -1.28295
C          2.39891        4.72724       -0.69614
N          2.09201        6.10653       -1.12127
C          2.67971        7.20261       -0.32516
H          0.66332        2.78425       -4.55047
H          0.19074        1.12634       -2.54093
H          1.94912        4.87234       -3.54396
H          2.04974        4.52151        0.33400
H          3.48716        4.53743       -0.78186
C          4.21763        7.09180       -0.23323
C          2.33454        8.52715       -1.03455
C          2.05841        7.22899        1.07829
H          4.66766        7.07508       -1.24979
H          4.63646        7.96108        0.31868
H          4.53091        6.17809        0.31096
H          1.23559        8.62884       -1.16200
H          2.69835        9.39809       -0.44516
H          2.80392        8.57162       -2.04135
H          0.95324        7.32488        1.00660
H          2.30571        6.30610        1.63283
H          2.45428        8.08445        1.66538
