108
speciation147.ct
Mg         1.28377       -0.10489       -0.16283
C          2.95372       -1.50059        2.01606
C          4.06069        0.08179        0.60183
O          2.86559       -0.62270        0.89073
C          3.48583       -0.83781        3.30525
C          5.21867       -0.81593        0.16172
H          1.93814       -1.89291        2.22502
H          3.55924       -2.39959        1.77288
H          3.86953        0.73671       -0.24519
H          4.34213        0.75942        1.43504
H          4.93657       -1.39691       -0.73856
H          6.08753       -0.17304       -0.09536
H          5.53089       -1.51015        0.96670
H          2.91806        0.08091        3.55602
H          3.41202       -1.54252        4.15892
H          4.55666       -0.56118        3.20774
H         -4.21867        3.02181        0.56771
C         -3.35279        4.73953       -0.23475
C         -3.18991        3.40217        0.50347
C         -3.95429        4.49415       -1.61972
H         -4.02397        5.41019        0.34796
H         -2.38586        5.27481       -0.30202
H         -3.33775        3.75757       -2.17663
H         -4.97790        4.07508       -1.50383
C         -4.01772        5.77520       -2.43951
H         -2.77887        3.66823        1.50120
H         -4.64777        6.53540       -1.93215
H         -2.99430        6.18244       -2.58760
H         -4.45484        5.54613       -3.43415
C          0.08136       -0.27056        4.05327
C         -0.71483        0.73850        4.54697
C         -0.73815        1.74554        3.59848
C          0.01519        1.35988        2.56292
N          0.54940        0.08193        2.78178
C          0.34610        2.21038        1.37725
N          0.00228        1.60525        0.06792
C          0.44924        2.53127       -1.06015
H         -1.21162        0.73702        5.50681
H          0.31014       -1.19998        4.55550
H         -1.24360        2.69682        3.69495
H          1.43468        2.37046        1.46259
H         -0.18452        3.16853        1.52392
C          1.96426        2.83306       -1.06613
C          0.15073        1.89853       -2.42868
C         -0.27306        3.88186       -1.03825
H          2.51709        1.90420       -1.24198
H          2.22041        3.50998       -1.91286
H          2.32803        3.35760       -0.16074
H         -0.91907        1.77953       -2.56541
H          0.47490        2.57300       -3.25458
H          0.65581        0.92413       -2.55136
H         -1.32418        3.65896       -1.20288
H         -0.11279        4.47213       -0.11423
H          0.05013        4.54067       -1.87383
Mg        -2.19014        1.39564        0.21690
C          0.41282       -2.54961       -1.45357
C          2.46765       -1.68579       -2.31878
O          1.24384       -1.40776       -1.64098
C          1.09678       -3.80150       -0.86937
C          2.26378       -2.07963       -3.79272
H         -0.38719       -2.25502       -0.74388
H         -0.10185       -2.80536       -2.40137
H          3.08400       -0.76332       -2.31945
H          3.07445       -2.45084       -1.79455
H          1.76519       -1.25871       -4.34860
H          3.24916       -2.28021       -4.26939
H          1.65998       -3.00537       -3.89215
H          1.59609       -3.56078        0.09232
H          0.33135       -4.58672       -0.69164
H          1.83305       -4.23933       -1.57598
H         -2.74486        0.95168       -2.41287
C         -4.39626       -0.14735       -1.74364
C         -2.95096        0.31990       -1.53801
C         -4.53617       -0.85494       -3.11324
H         -4.68436       -0.84351       -0.92761
H         -5.06547        0.73865       -1.72061
H         -4.23223       -0.15757       -3.92528
H         -3.87063       -1.74597       -3.15436
C         -5.96818       -1.30390       -3.39390
H         -2.29562       -0.57800       -1.55774
H         -6.29612       -2.05236       -2.64307
H         -6.65643       -0.43283       -3.37565
H         -6.02125       -1.76946       -4.40308
C         -2.32304       -0.92243        2.28244
C         -2.98650       -1.41119        3.39480
C         -3.99277       -0.53280        3.67231
C         -3.90785        0.46351        2.71956
N         -2.85791        0.25092        1.87514
C         -4.82707        1.64136        2.63718
N         -5.76511        1.75166        3.75711
C         -6.70661        2.90010        3.67114
H         -2.76254       -2.31218        3.95354
H         -1.47369       -1.39982        1.81601
H         -4.71803       -0.60300        4.47768
H         -4.16470        2.51041        2.69963
H         -5.37992        1.56002        1.67698
C         -7.84618        2.56091        2.69509
C         -7.28379        3.14222        5.06632
C         -6.02450        4.22174        3.20923
H         -8.34780        1.61336        3.01813
H         -8.60405        3.36759        2.67398
H         -7.47251        2.41322        1.66278
H         -6.46918        3.38818        5.78336
H         -8.00188        3.98416        5.05523
H         -7.81338        2.23470        5.43791
H         -5.19348        4.49612        3.89550
H         -5.63037        4.14979        2.17601
H         -6.75932        5.05467        3.20388
