108
speciation117.ct
Mg        -1.32964       -5.64754        1.37391
C          0.19874       -8.01686        0.49978
C         -1.90593       -7.68456       -0.51625
O         -1.11676       -7.49276        0.65753
C          0.97890       -7.55839       -0.74055
C         -2.20754       -9.16151       -0.81055
H          0.77640       -7.70325        1.35958
H          0.18815       -9.12658        0.56516
H         -2.88655       -7.21279       -0.34932
H         -1.48102       -7.17115       -1.40362
H         -2.69980       -9.63644        0.06428
H         -2.88954       -9.23613       -1.68479
H         -1.28658       -9.72635       -1.06282
H          0.98802       -6.45578       -0.81063
H          2.02523       -7.91988       -0.65938
H          0.55949       -7.98912       -1.67278
H         -4.01844       -4.55076        1.88030
C         -4.07698       -6.50005        2.79671
C         -3.65487       -5.56750        1.62643
C         -5.58509       -6.42614        3.14814
H         -3.81521       -7.54643        2.53632
H         -3.50605       -6.21429        3.70746
H         -5.85995       -5.39146        3.44833
H         -6.18683       -6.70914        2.25775
C         -5.95851       -7.36902        4.30154
H         -4.21853       -5.84146        0.71269
H         -5.68653       -8.41764        4.05873
H         -5.44702       -7.07361        5.24428
H         -7.05652       -7.33370        4.48559
C         -1.03223       -3.91387       -0.99943
C         -0.30025       -3.15211       -1.88718
C          0.96451       -3.09521       -1.39245
C          0.97284       -3.75125       -0.17678
N         -0.27608       -4.30508        0.05906
C          2.23782       -3.84840        0.70397
N          3.43689       -3.03869        0.24318
C          3.37395       -1.54380        0.44907
H         -0.63784       -2.70626       -2.81285
H         -2.06996       -4.17064       -1.13302
H          1.78974       -2.61107       -1.88103
H          1.98554       -3.58407        1.74565
H          2.51843       -4.91435        0.72582
C          2.99771       -1.19999        1.90403
C          4.75297       -1.07606        0.04305
C          2.41919       -0.67163       -0.40385
H          3.42464       -1.88846        2.60488
H          3.25683       -0.15026        2.16570
H          1.90760       -1.32619        2.07196
H          4.88221       -1.07604       -1.06139
H          5.02318       -0.07685        0.44634
H          5.41147       -1.87069        0.34909
H          2.63880       -0.72362       -1.48863
H          1.35270       -0.87959       -0.19155
H          2.57391        0.40084       -0.13487
Mg         5.40845       -3.73212        1.28102
C         -1.45831       -4.07141        3.55216
C          0.21426       -5.54704        4.16837
O         -0.84912       -5.32077        3.25006
C         -0.58776       -2.86048        3.24126
C          0.87614       -6.89324        3.98378
H         -2.31006       -3.94972        2.88991
H         -1.89381       -4.04934        4.57686
H          1.01346       -4.78385        4.08630
H         -0.20343       -5.56462        5.20271
H          1.46893       -6.86528        3.06077
H          1.60394       -7.05870        4.80562
H          0.12721       -7.71486        3.99141
H         -0.17754       -2.96135        2.22332
H         -1.20840       -1.94169        3.27281
H          0.23234       -2.75075        3.97524
H          5.91182       -6.52059        1.37535
C          5.64286       -6.31887       -0.70608
C          5.26373       -5.91522        0.73582
C          4.61425       -5.95361       -1.78940
H          6.63884       -5.87524       -0.96121
H          5.73843       -7.44006       -0.73587
H          3.66028       -6.45827       -1.52073
H          4.43810       -4.85846       -1.82952
C          5.04421       -6.45392       -3.17373
H          4.25718       -6.31770        0.97802
H          5.89289       -5.85311       -3.56757
H          5.35367       -7.52202       -3.14145
H          4.19701       -6.37243       -3.88991
C          5.13234       -2.26887        4.19327
C          5.76140       -1.11543        4.64491
C          6.65455       -0.73665        3.67167
C          6.53415       -1.67741        2.67082
N          5.58105       -2.59903        2.95795
C          7.45938       -1.78043        1.48443
N          7.50079       -3.20315        1.04526
C          8.57600       -3.93264        1.85488
H          5.59492       -0.59612        5.57683
H          4.35167       -2.79576        4.72041
H          7.33841        0.10159        3.69144
H          8.43737       -1.38474        1.78682
H          7.25052       -1.07547        0.65794
C          8.38535       -3.82763        3.39954
C          8.58237       -5.42913        1.53629
C         10.00372       -3.42821        1.49427
H          7.39159       -4.22425        3.70017
H          9.14753       -4.42378        3.94330
H          8.50234       -2.79444        3.77906
H          8.67618       -5.62216        0.45035
H          9.42427       -5.93630        2.06092
H          7.69893       -5.89170        1.96698
H         10.18229       -3.51762        0.40405
H         10.21748       -2.38857        1.80352
H         10.77200       -4.03071        2.02865
