78
speciation29.ct
Mg         0.54423       -0.02163        0.56117
H          3.27425       -0.42454        0.89881
C          2.71750        0.23026        2.88211
C          2.59678        0.32745        1.35700
C          2.15108       -1.10603        3.35894
H          3.77628        0.36183        3.20809
H          2.11552        1.05273        3.32762
H          1.10644       -1.13904        2.99150
H          2.71144       -1.96582        2.92813
C          2.12682       -1.23124        4.88431
H          2.97498        1.32806        1.05769
H          3.08665       -1.63832        5.26537
H          1.92415       -0.25413        5.37217
H          1.31284       -1.93112        5.16985
C          0.28272       -5.04379       -2.40167
C          0.32110       -6.02830       -1.43186
C          0.21727       -5.38946       -0.21233
C          0.11957       -4.04961       -0.50128
N          0.14798       -3.83372       -1.82125
C         -0.01694       -2.90944        0.45099
N         -0.41307       -1.67776       -0.28498
C         -1.88703       -1.42488       -0.23395
H          0.42303       -7.09457       -1.58774
H          0.36000       -5.20580       -3.47018
H          0.21460       -5.84530        0.76750
H          0.95647       -2.76889        0.95327
H         -0.74274       -3.19399        1.23909
C         -2.33994       -1.07614        1.20877
C         -2.17313       -0.26140       -1.18734
C         -2.75184       -2.61685       -0.72435
H         -1.67784       -0.33441        1.66707
H         -3.38283       -0.69541        1.22531
H         -2.32853       -1.95420        1.88560
H         -1.95621       -0.56739       -2.23050
H         -3.23707        0.05783       -1.12958
H         -1.51802        0.59126       -0.97719
H         -2.49416       -2.89945       -1.76526
H         -2.64604       -3.51086       -0.07584
H         -3.82942       -2.33663       -0.70189
Mg         0.07670       -1.95102       -2.28660
H         -1.31671        2.00758        0.53492
C          0.33081        3.11249        1.26418
C         -0.45102        1.81512        1.19878
C          0.97000        3.44190       -0.08920
H         -0.35667        3.92359        1.55745
H          1.12464        3.00693        2.03557
H          1.68830        2.63405       -0.36940
H          0.20530        3.51836       -0.88309
C          1.73162        4.76351        0.00692
H         -0.87155        1.63481        2.20863
H          1.02073        5.59023        0.22342
H          2.48974        4.71727        0.81820
H          2.24570        4.97475       -0.95272
C         -0.79915       -1.42209       -8.61534
C          0.15623       -2.36969       -8.31943
C          0.16613       -2.53430       -6.94512
C         -0.74546       -1.71345       -6.42024
N         -1.41286       -0.98336       -7.42854
C         -1.02270       -1.54739       -4.94927
N          0.18377       -1.15144       -4.18548
C          0.73418        0.22325       -4.40814
H          0.78678       -2.87666       -9.04004
H         -1.04430       -1.06296       -9.60641
H          0.81506       -3.19350       -6.38503
H         -1.35977       -2.52844       -4.56277
H         -1.85095       -0.83187       -4.77578
C         -0.32365        1.32489       -4.18245
C          1.88597        0.42376       -3.41242
C          1.33002        0.40626       -5.82883
H          0.13379        2.33112       -4.30740
H         -0.75319        1.26603       -3.16635
H         -1.14148        1.26052       -4.93139
H          2.70770       -0.29440       -3.62477
H          2.30039        1.45367       -3.49408
H          1.53407        0.26611       -2.37240
H          2.07226       -0.38914       -6.05538
H          0.55762        0.41691       -6.61771
H          1.83970        1.39003       -5.91821
