108
speciation121.ct
Mg        -1.83183       -1.31640       -0.30471
C         -1.12332       -0.86754        2.40089
C          0.16542        0.41778        0.88994
O         -0.58494       -0.76533        1.09405
C         -2.00515        0.30891        2.82525
C          1.44366        0.49608        1.74222
H         -1.73994       -1.77578        2.42300
H         -0.32635       -1.07475        3.14165
H          0.50345        0.39062       -0.16072
H         -0.45059        1.33504        0.99575
H          2.10849       -0.36436        1.52189
H          2.00387        1.43041        1.53087
H          1.21252        0.51693        2.82548
H         -2.76835        0.51262        2.04925
H         -2.50913        0.05248        3.77897
H         -1.39396        1.21771        3.00214
H         -1.88827       -3.77919        0.52104
C         -3.73794       -3.72974       -0.61071
C         -2.72072       -3.07682        0.31558
C         -4.24858       -5.02690        0.03330
H         -4.58352       -3.02589       -0.77212
H         -3.26229       -3.95211       -1.58948
H         -3.39332       -5.72411        0.17017
H         -4.68972       -4.80843        1.03110
C         -5.30757       -5.70867       -0.82283
H         -3.24539       -2.82804        1.25979
H         -6.20192       -5.05703       -0.91707
H         -4.90291       -5.93280       -1.83167
H         -5.61085       -6.66140       -0.33846
C         -1.01134       -1.19923       -3.13223
C         -0.05789       -1.60887       -4.03664
C          0.81373       -2.42617       -3.35308
C          0.35194       -2.49586       -2.04873
N         -0.74783       -1.71248       -1.91253
C          0.93145       -3.35780       -0.93879
N          2.32053       -3.00809       -0.57109
C          2.93271       -3.84891        0.51091
H         -0.00240       -1.33381       -5.08420
H         -1.83631       -0.53299       -3.34613
H          1.67562       -2.90970       -3.78504
H          0.27790       -3.23528       -0.05697
H          0.88162       -4.41419       -1.27221
C          3.38473       -5.21415       -0.03673
C          4.17278       -3.10873        1.03219
C          2.00090       -4.12202        1.72375
H          4.16348       -5.08285       -0.80151
H          3.84789       -5.83323        0.76228
H          2.52614       -5.78252       -0.44312
H          3.87762       -2.15078        1.51033
H          4.71573       -3.71971        1.78781
H          4.87125       -2.88447        0.19739
H          1.67660       -3.18173        2.21343
H          1.11149       -4.72347        1.44148
H          2.54771       -4.72567        2.48655
Mg         3.59132       -3.01419       -2.14172
C          5.12705       -5.09420       -3.39348
C          2.76986       -5.43408       -3.70195
O          3.80562       -4.70834       -3.05531
C          5.43467       -4.96194       -4.88476
C          2.76989       -6.93444       -3.38454
H          5.80680       -4.42130       -2.84011
H          5.37217       -6.10639       -3.00649
H          1.80133       -5.05776       -3.32902
H          2.78043       -5.25034       -4.79568
H          2.66190       -7.10750       -2.29568
H          1.91035       -7.41370       -3.89917
H          3.69390       -7.43062       -3.74215
H          5.15085       -3.94949       -5.23972
H          6.51856       -5.12226       -5.05951
H          4.88292       -5.73043       -5.46539
H         -4.10207       -0.65679       -1.50915
C         -3.51100        1.40232       -1.25209
C         -3.56930       -0.04862       -0.74645
C         -4.92673        1.95751       -1.54469
H         -3.01514        2.03160       -0.48434
H         -2.91860        1.43723       -2.18942
H         -5.41225        1.34368       -2.33428
H         -5.55828        1.91351       -0.63035
C         -4.88177        3.41025       -2.02606
H         -4.16573       -0.06532        0.18952
H         -4.46728        4.06853       -1.23361
H         -4.25836        3.49989       -2.94044
H         -5.90942        3.76136       -2.26865
C          6.01301       -1.47533       -3.06969
C          6.53694       -0.21810       -3.28900
C          5.55486        0.68483       -2.97969
C          4.45708       -0.06018       -2.58661
N          4.73061       -1.38734       -2.63252
C          3.15505        0.53599       -2.15662
N          2.88294        1.77354       -2.92452
C          1.58076        2.44045       -2.68471
H          7.53751        0.01816       -3.64039
H          6.55263       -2.38912       -3.21427
H          5.62829        1.76140       -3.03749
H          2.38108       -0.23899       -2.32754
H          3.22045        0.75344       -1.07042
C          1.48438        2.99497       -1.25132
C          1.45015        3.62304       -3.65442
C          0.42338        1.48696       -2.97818
H          2.25583        3.77197       -1.07401
H          0.47984        3.43554       -1.06459
H          1.64791        2.20995       -0.50895
H          1.56468        3.27905       -4.70415
H          0.45018        4.10206       -3.54946
H          2.22578        4.38874       -3.44516
H          0.50547        1.10009       -4.01649
H          0.44262        0.65037       -2.27437
H         -0.56060        1.98545       -2.85755
