93
speciation86.ct
Mg         2.53015       -0.00205        1.19512
C          5.22238        0.28311        0.01163
C          5.57257       -1.20305        1.80657
O          4.74662       -0.12500        1.29974
C          6.53965        1.09993        0.03447
C          6.87875       -0.83891        2.54761
H          5.29943       -0.55336       -0.71498
H          4.44533        0.94709       -0.40661
H          5.01290       -1.73907        2.59191
H          5.83370       -1.93280        1.00486
H          6.68684       -0.25208        3.46533
H          7.37317       -1.79367        2.84242
H          7.64809       -0.32176        1.95981
H          7.42762        0.44811        0.08687
H          6.66778        1.65668       -0.91595
H          6.57692        1.83068        0.87122
H          1.57311        0.69849        3.94351
C          1.12011       -1.32463        4.30153
C          1.26203       -0.16151        3.33217
C          2.42033       -1.67301        4.97821
H          0.34809       -1.08336        5.06704
H          0.75011       -2.21074        3.77999
H          3.19116       -1.86849        4.21491
H          2.76033       -0.82330        5.60644
C          2.21638       -2.92064        5.82887
H          0.18213       -0.01227        3.11852
H          1.61872       -2.65790        6.72489
H          1.67262       -3.71528        5.26433
H          3.20206       -3.32090        6.12987
C         -0.86568        4.70060       -0.14268
C         -1.11688        4.91682        1.20138
C         -0.67624        3.80316        1.87618
C         -0.12746        3.00828        0.89442
N         -0.26721        3.49669       -0.33325
C          0.73407        1.76608        0.99443
N          2.07203        1.95152        0.52982
C          2.71310        3.09417        1.34080
H         -1.53441        5.79820        1.67512
H         -1.07748        5.40697       -0.93505
H         -0.66540        3.63176        2.92692
H          0.67373        1.06734        0.22706
H          0.32416        0.89900        1.43247
C          2.28512        3.12543        2.86073
C          4.21942        2.96825        1.38166
C          2.46431        4.48749        0.69305
H          2.94703        2.52474        3.51901
H          2.24014        4.15661        3.25416
H          1.28514        2.71213        3.09535
H          4.65249        3.01887        0.36782
H          4.67166        3.78949        1.98567
H          4.50280        2.04985        1.92624
H          2.66774        4.46071       -0.39258
H          1.47897        4.89566        0.88611
H          3.12027        5.25267        1.16509
Mg         0.51383        2.12020       -1.21309
H          1.71609        2.88148       -3.43962
C         -0.10289        2.58740       -4.55063
C          0.83202        2.22197       -3.35835
C         -1.44937        1.84584       -4.59624
H         -0.30518        3.68007       -4.56351
H          0.44782        2.33941       -5.48569
H         -1.97031        2.06280       -5.55837
H         -1.28279        0.74926       -4.53761
C         -2.36985        2.31436       -3.48160
H          1.13771        1.16156       -3.47650
H         -1.83819        2.22075       -2.53138
H         -2.63390        3.38479       -3.61016
H         -3.30232        1.70960       -3.46441
C         -2.25077        0.93768       -0.44240
C         -2.96672       -0.18788       -0.10389
C         -2.12839       -1.26383       -0.30245
C         -0.90507       -0.75779       -0.75032
N         -1.01009        0.59111       -0.85214
C          0.34018       -1.60565       -1.06273
N          1.53680       -1.54644       -0.13589
C          1.71175       -2.80471        0.66452
H         -3.98031       -0.19199        0.28175
H         -2.60609        1.94722       -0.35051
H         -2.38316       -2.29484       -0.10048
H         -0.00451       -2.65706       -1.17250
H          0.65820       -1.33857       -2.08643
C          2.12833       -4.10136       -0.09022
C          2.88241       -2.53248        1.55650
C          0.43799       -3.11538        1.46190
H          3.07219       -3.98148       -0.66539
H          2.34250       -4.89485        0.67657
H          1.33776       -4.51461       -0.73936
H          2.75732       -1.61703        2.12142
H          3.12852       -3.34822        2.26665
H          3.71820       -2.39355        0.85331
H         -0.00085       -2.17636        1.84648
H         -0.34069       -3.56741        0.81814
H          0.64839       -3.85439        2.26554
