93
speciation90.ct
Mg         0.49016        7.13696       -0.14861
C         -0.82258        7.99272       -2.53018
C          0.26353        9.56999       -1.25176
O         -0.46651        8.36026       -1.21276
C         -1.60565        6.69748       -2.52300
C          0.75176        9.95370        0.14134
H         -1.49876        8.77356       -2.94913
H          0.06639        7.87765       -3.18865
H          1.16298        9.50200       -1.91915
H         -0.39556       10.39706       -1.59680
H          1.50658        9.22560        0.50835
H          1.22297       10.96063        0.10804
H         -0.10302        9.98709        0.84740
H         -2.45323        6.77141       -1.81042
H         -2.00602        6.50624       -3.54240
H         -0.94966        5.85632       -2.22394
H          5.81961        3.27978       -4.13479
C          6.40576        3.42614       -2.06796
C          5.32587        3.45897       -3.15261
C          7.10083        2.07007       -2.01810
H          7.17538        4.20737       -2.28250
H          5.93701        3.66588       -1.09014
H          6.34665        1.27695       -1.85312
H          7.61715        1.88905       -2.98695
C          8.12601        2.01689       -0.88876
H          4.94769        4.49652       -3.15555
H          8.88760        2.81730       -1.00817
H          7.61818        2.14105        0.09164
H          8.63870        1.03241       -0.90242
C          1.65751        5.94750        2.25448
C          2.52492        4.98498        2.72160
C          2.96468        4.28748        1.62069
C          2.29681        4.81260        0.52546
N          1.53981        5.85993        0.91276
C          2.34084        4.31463       -0.89180
N          2.63208        2.86748       -1.02646
C          1.60999        1.92133       -0.47368
H          2.81597        4.81397        3.75265
H          1.13713        6.67121        2.86877
H          3.66354        3.46714        1.62125
H          1.37101        4.55201       -1.36033
H          3.11283        4.90542       -1.41942
C          0.24699        2.04908       -1.18479
C          2.17322        0.58258       -0.76148
C          1.38759        1.92300        1.05937
H          0.36882        1.96380       -2.28597
H         -0.42903        1.22982       -0.85051
H         -0.24287        3.01148       -0.94510
H          3.20866        0.47671       -0.35350
H          1.53820       -0.25048       -0.39389
H          2.17038        0.60513       -1.84450
H          2.33318        1.72874        1.61085
H          0.87732        2.83404        1.41808
H          0.71165        1.08631        1.34584
Mg         3.46622        2.23528       -2.96641
H          4.47787       -0.24212       -4.13200
C          2.95327       -1.34856       -3.05172
C          3.95770       -0.13944       -3.15956
C          1.76500       -1.23973       -4.01883
H          3.47547       -2.31699       -3.19682
H          2.54632       -1.45393       -2.03141
H          1.29153       -0.23776       -3.93389
H          2.13299       -1.37866       -5.05552
C          0.68182       -2.28216       -3.69987
H          4.69925       -0.30160       -2.34940
H          1.09376       -3.31238       -3.72867
H          0.25280       -2.09856       -2.68854
H         -0.14799       -2.20867       -4.43540
C          2.53322        2.06577       -5.85630
C          1.78079        2.58730       -6.89866
C          1.10877        3.66153       -6.38900
C          1.50535        3.77250       -5.07007
N          2.34467        2.76027       -4.70438
C          1.08306        4.91525       -4.21712
N          2.23866        5.71403       -3.77067
C          2.98887        6.52585       -4.76944
H          1.74188        2.24979       -7.92917
H          3.19937        1.22221       -5.95999
H          0.45194        4.33314       -6.93531
H          0.34338        5.56184       -4.73448
H          0.55582        4.48271       -3.35061
C          2.07674        7.50634       -5.53675
C          4.02505        7.34870       -3.98334
C          3.75837        5.65362       -5.78638
H          1.57444        8.20753       -4.84190
H          2.67777        8.10887       -6.25150
H          1.30759        6.97301       -6.13176
H          4.69195        6.69077       -3.39275
H          4.65894        7.94690       -4.67324
H          3.52107        8.04182       -3.27669
H          4.36325        4.88011       -5.28325
H          3.09189        5.16719       -6.51201
H          4.43858        6.27752       -6.40263
