78
speciation34.ct
Mg         0.84252        0.11745        0.10737
H          2.71612       -0.85091       -1.82089
C          1.33117        0.20280       -3.09530
C          1.61655       -0.68295       -1.87351
C          2.03254        1.55582       -2.95882
H          1.68794       -0.29085       -4.03130
H          0.23385        0.33791       -3.18589
H          1.75613        2.02061       -1.99006
H          3.13442        1.40108       -2.98221
C          1.63556        2.50889       -4.08404
H          1.16392       -1.67764       -2.07967
H          1.89084        2.08332       -5.07760
H          0.54400        2.70498       -4.04710
H          2.17061        3.47389       -3.95786
C         -0.42945        5.32758       -1.71311
C         -1.26583        4.92743       -2.72575
C         -1.62466        3.59747       -2.46018
C         -0.99782        3.27609       -1.25731
N         -0.25443        4.29890       -0.88706
C         -1.06593        1.92603       -0.49597
N         -0.14903        1.88962        0.67372
C         -0.75005        1.87198        2.04553
H         -1.54907        5.55265       -3.56764
H          0.03962        6.29751       -1.57694
H         -2.24564        3.00053       -3.09999
H         -0.65471        1.19088       -1.22473
H         -2.09259        1.65569       -0.28239
C         -1.65673        0.67291        2.41038
C          0.41479        1.81104        3.04395
C         -1.50976        3.17507        2.35976
H         -1.12736       -0.29032        2.26690
H         -1.92399        0.72620        3.49585
H         -2.60714        0.68013        1.84672
H          1.04638        2.65333        2.76515
H          0.11932        1.91309        4.11089
H          0.95253        0.83842        2.98026
H         -0.84861        4.01867        2.16708
H         -2.40271        3.27383        1.71840
H         -1.80600        3.23433        3.43137
Mg         0.60106        3.86236        0.52172
H          2.53692       -2.01146        0.84034
C          0.67391       -2.85784        1.53067
C          1.58678       -1.64533        1.29000
C          0.34145       -3.57249        0.22056
H          1.18586       -3.58018        2.21035
H         -0.25761       -2.52097        2.03095
H         -0.15939       -2.85813       -0.46332
H          1.28118       -3.93588       -0.25164
C         -0.58387       -4.76765        0.44671
H          1.85580       -1.24351        2.29014
H         -0.10288       -5.52041        1.10786
H         -1.53898       -4.43613        0.90671
H         -0.80936       -5.24856       -0.52894
C          0.07962        6.31300        2.42649
C          0.92533        6.31556        3.51471
C          2.13086        5.83834        3.07515
C          1.98871        5.61174        1.74730
N          0.71982        5.64408        1.44626
C          2.92684        5.02529        0.74001
N          2.65211        3.60509        0.59732
C          3.57298        2.72792        1.40250
H          0.69456        6.58615        4.53056
H         -0.94311        6.65501        2.42992
H          2.99223        5.62157        3.67443
H          3.97359        5.31830        0.90263
H          2.67507        5.47686       -0.25449
C          3.69230        2.98519        2.95270
C          3.13827        1.29623        1.11760
C          5.01623        2.85137        0.88507
H          2.81167        2.95397        3.60555
H          4.35523        2.20862        3.39791
H          4.22006        3.93408        3.15944
H          3.29062        1.05898        0.04563
H          3.67690        0.56353        1.75004
H          2.07587        1.18232        1.26957
H          5.05464        2.65175       -0.20229
H          5.45362        3.84930        1.08642
H          5.66301        2.12196        1.41612
