108
speciation132.ct
Mg         0.88523       -0.17528       -0.18289
C         -0.07514       -2.54431        1.75856
C         -0.14983       -3.14250       -0.42013
O         -0.05257       -1.99736        0.43242
C         -0.34180       -1.53283        2.84364
C         -0.10870       -2.74524       -1.84721
H         -0.94571       -3.23825        1.86343
H          0.85657       -3.10739        1.99695
H          0.66416       -3.88039       -0.23490
H         -1.12441       -3.66632       -0.28966
H          0.84682       -2.23983       -1.95000
H         -0.12477       -3.63012       -2.51653
H         -0.97196       -2.08427       -2.06997
H         -1.20014       -0.88757        2.56063
H         -0.59686       -2.05504        3.78926
H          0.58800       -0.98703        3.05345
H         -1.00727        1.18051        1.36374
C          0.27460        2.85607        1.74719
C          0.08735        1.35539        1.42958
C         -0.39884        3.36558        3.05320
H          1.33137        3.07825        1.87308
H         -0.09895        3.45871        0.89974
H         -0.19364        4.45762        3.11909
H         -1.49922        3.22717        3.01468
C          0.14273        2.74902        4.35548
H          0.46749        0.89223        2.33485
H         -0.11812        1.67465        4.44096
H          1.24548        2.86903        4.42819
H         -0.30865        3.27371        5.22847
C          0.26081       -0.17784       -3.45402
C         -0.36948        0.45649       -4.50106
C         -0.93968        1.57035       -3.97897
C         -0.64826        1.56644       -2.61944
N          0.10302        0.47833       -2.25676
C         -1.14429        2.66539       -1.74311
N         -2.45183        3.13722       -2.25112
C         -3.06197        4.29939       -1.53645
H         -0.42116        0.14185       -5.53761
H          0.78739       -1.08912       -3.64154
H         -1.51576        2.30307       -4.53494
H         -1.24760        2.27446       -0.72301
H         -0.39666        3.48238       -1.80046
C         -2.19474        5.56886       -1.65210
C         -4.42443        4.60489       -2.21200
C         -3.32368        3.94638       -0.06685
H         -2.04137        5.84363       -2.71953
H         -2.69281        6.42453       -1.14579
H         -1.20562        5.43576       -1.17373
H         -5.08588        3.71254       -2.19707
H         -4.94931        5.43335       -1.68485
H         -4.28588        4.91223       -3.27213
H         -3.96649        3.04233        0.00034
H         -2.37712        3.74956        0.46805
H         -3.82618        4.78597        0.45628
Mg         3.96675        1.62857       -0.62793
C          5.25697        2.31165        1.14127
C          5.65275        4.30346        0.05142
O          5.38842        2.89775       -0.09981
C          4.03843        2.83853        1.91273
C          6.97941        4.55253        0.80543
H          5.06691        1.27334        0.86506
H          6.21168        2.24445        1.69083
H          5.75396        4.77933       -0.93854
H          4.81827        4.85663        0.52714
H          7.80733        4.01401        0.29452
H          7.21375        5.63334        0.86014
H          6.93976        4.20547        1.86270
H          3.21108        2.80241        1.18982
H          3.76543        2.24527        2.80274
H          4.19023        3.86540        2.29189
H          3.54516        2.15214       -3.26241
C          5.62870        2.81678       -3.08083
C          4.21193        2.60716       -2.50091
C          6.35823        1.54483       -3.50752
H          5.55086        3.49657       -3.95543
H          6.27389        3.31004       -2.33999
H          6.45291        0.84888       -2.65546
H          5.79546        1.04747       -4.32360
C          7.77343        1.89141       -3.98439
H          3.80432        3.60889       -2.25211
H          7.73350        2.60994       -4.83048
H          8.36290        2.34923       -3.15819
H          8.30029        0.97368       -4.31663
C          6.35013       -0.08365        3.51099
C          6.30889       -1.44276        3.46617
C          5.12404       -1.81226        2.81745
C          4.48207       -0.70185        2.41675
N          5.17922        0.39639        2.94107
C          3.14774       -0.57376        1.60226
N          3.14017       -0.25577        0.10560
C          3.91720       -1.27104       -0.70100
H          7.10513       -2.08089        3.83980
H          7.14007        0.54820        3.90439
H          4.83394       -2.83250        2.63710
H          2.56215        0.20012        2.12115
H          2.57381       -1.49882        1.76876
C          3.54950       -2.72301       -0.34174
C          3.64415       -1.08045       -2.20421
C          5.44738       -1.09961       -0.54676
H          2.47551       -2.85173       -0.46398
H          4.06627       -3.46177       -0.99390
H          3.80789       -2.99555        0.69234
H          3.93835       -0.07504       -2.54173
H          4.21950       -1.82346       -2.80123
H          2.59335       -1.22735       -2.44346
H          5.74725       -0.07715       -0.82367
H          5.83215       -1.29662        0.45677
H          5.98953       -1.82027       -1.19640
