108
speciation131.ct
Mg         1.09807       -0.01024        0.14366
C         -0.91272        0.71460        2.12622
C          0.83263        2.20298        2.37495
O          0.42808        0.97896        1.76665
C         -1.92349        1.61347        1.39825
C          2.30205        2.48703        2.18460
H         -1.05937       -0.34624        1.91983
H         -1.07341        0.76677        3.22832
H          0.27599        3.07633        1.97524
H          0.69347        2.13335        3.47880
H          2.47684        2.73123        1.12607
H          2.58075        3.37998        2.78317
H          2.90943        1.62243        2.52330
H         -1.76138        1.57783        0.30127
H         -2.94862        1.26857        1.63349
H         -1.85394        2.66719        1.73279
H         -0.44877        0.87194       -1.84577
C          1.24162        0.32776       -3.11965
C          0.65553        0.83338       -1.77372
C          0.80213       -1.06410       -3.61913
H          0.94924        1.05806       -3.90653
H          2.35097        0.33214       -3.05783
H          1.27962       -1.23566       -4.61085
H          1.14284       -1.86671       -2.93293
C         -0.70107       -1.17029       -3.82351
H          1.03542        1.86477       -1.63250
H         -1.19518       -1.10407       -2.84715
H         -1.07837       -0.35519       -4.47707
H         -0.96270       -2.14819       -4.28371
C          1.15771       -2.92593       -0.17970
C          0.48305       -4.11595       -0.27667
C         -0.85064       -3.81513       -0.18251
C         -0.94011       -2.44244       -0.01027
N          0.30908       -1.89729        0.02521
C         -2.24269       -1.65826       -0.03627
N         -3.49297       -2.37623        0.26708
C         -3.86582       -2.81316        1.63934
H          0.91674       -5.09335       -0.44314
H          2.21831       -2.82462       -0.28633
H         -1.65993       -4.51638       -0.27182
H         -2.24178       -0.62587        0.26681
H         -2.34755       -1.49045       -1.11893
C         -3.71188       -1.69744        2.70492
C         -5.34925       -3.22343        1.59991
C         -3.07345       -4.05231        2.09312
H         -4.28330       -0.79874        2.42407
H         -4.09042       -2.05373        3.68955
H         -2.65295       -1.45004        2.85494
H         -5.51176       -4.03612        0.86184
H         -5.70433       -3.58239        2.59538
H         -5.98856       -2.37218        1.31519
H         -3.20988       -4.88332        1.36835
H         -1.99342       -3.82936        2.21722
H         -3.44474       -4.41885        3.07866
Mg        -5.00856       -1.25816       -0.46204
C         -7.62924       -0.45538       -0.24311
C         -6.24048        1.13905        0.87874
O         -6.38904       -0.19032        0.39034
C         -8.04121        0.55476       -1.32306
C         -7.22109        1.45687        2.01983
H         -7.51075       -1.44184       -0.73571
H         -8.43525       -0.59872        0.50729
H         -5.22146        1.24267        1.30101
H         -6.31502        1.89344        0.06684
H         -7.06992        0.75320        2.86675
H         -7.05260        2.49234        2.38857
H         -8.27501        1.39350        1.68285
H         -7.21544        0.73795       -2.03376
H         -8.91198        0.15691       -1.88257
H         -8.33644        1.52382       -0.87313
H         -6.29193       -1.22031       -2.80664
C         -4.41210       -1.68338       -3.70875
C         -5.22694       -0.97121       -2.62246
C         -4.54872       -3.21003       -3.68378
H         -4.76760       -1.32936       -4.70364
H         -3.35186       -1.39796       -3.61388
H         -5.61232       -3.49865       -3.82464
H         -3.95558       -3.63563       -4.52278
C         -4.03535       -3.80441       -2.38444
H         -5.09300        0.12091       -2.77706
H         -2.96837       -3.53210       -2.23998
H         -4.65670       -3.42850       -1.55136
H         -4.12177       -4.90865       -2.40295
C          3.78570        1.04355       -0.24906
C          5.13767        0.94718       -0.01597
C          5.32986       -0.21806        0.68377
C          4.07749       -0.77377        0.86847
N          3.12347       -0.00588        0.28070
C          3.82546       -2.06907        1.57767
N          4.72634       -2.24051        2.72325
C          4.53138       -3.49153        3.49533
H          5.89742        1.65336       -0.31948
H          3.30626        1.85679       -0.77684
H          6.27612       -0.60751        1.03592
H          2.76282       -2.09661        1.88659
H          4.06070       -2.86152        0.84278
C          4.63890       -4.76149        2.61643
C          5.64905       -3.55160        4.55047
C          3.16625       -3.47226        4.20985
H          5.61621       -4.79530        2.08865
H          4.55286       -5.67615        3.24476
H          3.82620       -4.81570        1.86246
H          5.66123       -2.62444        5.16098
H          5.50779       -4.42124        5.22912
H          6.64182       -3.65696        4.05951
H          3.05986       -2.54534        4.81191
H          2.32925       -3.52531        3.48376
H          3.06420       -4.35165        4.88040
