93
speciation68.ct
Mg         6.53701        3.82474        3.04852
C          4.35788        3.31145        3.87544
C          5.77530        3.15547        5.75528
O          5.59343        2.85576        4.37244
C          4.10754        4.81687        4.06124
C          4.80843        2.36805        6.64861
H          4.45212        3.14868        2.80218
H          3.50823        2.67681        4.19272
H          6.79790        2.84301        6.05162
H          5.70981        4.24131        5.96979
H          4.97778        1.27779        6.52249
H          4.97518        2.63806        7.71202
H          3.75026        2.60046        6.41144
H          4.99920        5.40047        3.74127
H          3.23935        5.13055        3.45021
H          3.87059        5.05513        5.11899
H          8.67507        5.37975        3.69213
C          9.42842        3.43836        4.30468
C          8.28382        4.43905        4.13191
C         10.12513        3.14953        2.97456
H         10.17298        3.87486        5.00868
H          9.03764        2.49738        4.75067
H          9.40288        2.69406        2.26529
H         10.50223        4.10394        2.54413
C         11.31473        2.21017        3.16789
H          7.91174        4.69799        5.14337
H         12.06106        2.66537        3.85580
H         10.98088        1.23854        3.58856
H         11.80735        2.02679        2.18966
C          7.30501        4.62401        0.41562
C          7.13266        4.71484       -0.94282
C          5.94619        4.11416       -1.22549
C          5.39771        3.70489       -0.02271
N          6.26648        3.98343        1.00054
C          4.03342        3.03521        0.05659
N          3.13572        3.36288       -1.08714
C          2.39607        4.65795       -1.03540
H          7.80382        5.17387       -1.66060
H          8.15139        5.01162        0.96261
H          5.50519        3.99236       -2.20184
H          4.20041        1.94061        0.09801
H          3.51211        3.25668        0.99135
C          3.34572        5.82295       -1.31222
C          1.32769        4.59442       -2.13645
C          1.66421        4.94740        0.29819
H          3.88452        5.61580       -2.23900
H          2.79529        6.78012       -1.42410
H          4.07891        5.94954       -0.49173
H          0.58038        3.80248       -1.90874
H          0.78991        5.56229       -2.24233
H          1.79872        4.34618       -3.10046
H          0.92060        4.15942        0.53812
H          2.36638        5.06889        1.14583
H          1.11891        5.91603        0.21779
Mg         3.86408        3.07824       -3.01291
H          4.52391        0.72005       -1.71548
C          5.34341        0.29604       -3.64449
C          4.25806        0.92978       -2.76856
C          6.70047        0.92962       -3.35174
H          5.39205       -0.79788       -3.43638
H          5.10144        0.42885       -4.71598
H          6.64338        2.01938       -3.55493
H          6.95763        0.77037       -2.28184
C          7.79647        0.31665       -4.21907
H          3.30464        0.39455       -2.94282
H          7.88644       -0.77338       -4.02234
H          7.57225        0.47536       -5.29560
H          8.76590        0.80241       -3.98168
C          2.11689       -0.11417       -5.23942
C          1.01652        0.38351       -4.57965
C          1.07866        1.76119       -4.65162
C          2.19138        2.08929       -5.30903
N          2.89892        0.94620       -5.71876
C          2.59188        3.49011       -5.63766
N          3.84628        3.88758       -4.96497
C          4.27818        5.28476       -5.37337
H          0.24317       -0.20318       -4.10374
H          2.36555       -1.16040       -5.35560
H          0.35310        2.45719       -4.25056
H          1.76597        4.15426       -5.32389
H          2.67896        3.52725       -6.73640
C          3.20539        6.36087       -5.05327
C          5.59411        5.67277       -4.66714
C          4.58310        5.36511       -6.89484
H          2.91594        6.36304       -3.99208
H          3.58272        7.37594       -5.30176
H          2.28374        6.22442       -5.65387
H          6.40198        4.95285       -4.91069
H          5.92348        6.68577       -4.99787
H          5.49956        5.73286       -3.57720
H          5.35831        4.62321       -7.17935
H          3.68704        5.21172       -7.52572
H          4.95875        6.37820       -7.16299
