93
speciation97.ct
Mg         4.04738        1.07852        1.38789
C          4.69268        3.48384        2.73215
C          6.31645        1.74210        3.07565
O          4.98619        2.09802        2.74541
C          5.63423        4.32495        1.86990
C          6.68150        2.09258        4.51896
H          3.67118        3.58398        2.30799
H          4.62602        3.88255        3.76739
H          6.38359        0.63735        3.01182
H          7.05007        2.15956        2.35470
H          5.97053        1.60747        5.22079
H          7.70626        1.72352        4.73781
H          6.67035        3.18948        4.68126
H          5.71291        3.88591        0.85784
H          5.23863        5.35920        1.79613
H          6.64490        4.38125        2.32098
H          3.41058       -0.82962       -4.49255
C          1.48700       -1.24785       -3.75959
C          2.98980       -1.03125       -3.50663
C          1.14262       -2.29460       -4.83390
H          1.03308       -1.66442       -2.85071
H          1.04390       -0.27035       -4.04914
H          1.61776       -2.04289       -5.80538
H          1.50484       -3.29368       -4.50384
C         -0.37937       -2.35894       -5.03518
H          3.41898       -2.00487       -3.20141
H         -0.89703       -2.57607       -4.07567
H         -0.75461       -1.38826       -5.42602
H         -0.64265       -3.15436       -5.76265
C          2.13252       -4.30524       -1.05818
C          1.47052       -4.40374        0.14507
C          1.81205       -3.29159        0.89337
C          2.64003       -2.53374        0.17333
N          2.89160       -3.11807       -1.08315
C          3.30559       -1.28012        0.69075
N          3.08437        0.03275       -0.00461
C          1.63500        0.49295        0.21608
H          0.82791       -5.21734        0.44964
H          2.09446       -5.03311       -1.85779
H          1.47918       -3.08343        1.90340
H          4.34233       -1.53869        0.72944
H          3.07597       -1.17563        1.76603
C          1.25062        0.59963        1.71698
C          1.45433        1.87886       -0.35446
C          0.53580       -0.34437       -0.48386
H          1.96444        1.25065        2.26259
H          0.23652        1.05033        1.82133
H          1.17414       -0.38646        2.21343
H          1.58097        1.77081       -1.43183
H          0.42708        2.27731       -0.20931
H          2.14433        2.57108        0.13266
H          0.62129       -0.21753       -1.55980
H          0.47581       -1.40163       -0.19828
H         -0.47321        0.06681       -0.25589
Mg         3.95939        0.47900       -2.01813
H          4.06971        3.15821       -3.40307
C          4.06097        3.92119       -1.44047
C          3.64334        2.82149       -2.44895
C          3.38737        5.27766       -1.76736
H          3.76660        3.65530       -0.41768
H          5.16321        4.02496       -1.43953
H          3.70776        5.62081       -2.77283
H          2.27809        5.16091       -1.77213
C          3.72073        6.36185       -0.73936
H          2.56980        2.97302       -2.64195
H          3.32716        6.08521        0.26296
H          4.81698        6.51576       -0.67432
H          3.24530        7.32182       -1.03931
C          5.16650       -0.64820       -6.84896
C          4.48847        0.49463       -6.48486
C          4.98932        0.88851       -5.26235
C          5.91843        0.02565       -4.87458
N          6.09416       -0.98640       -5.84491
C          6.77634        0.14653       -3.64321
N          6.08664        0.02150       -2.32495
C          7.09352        0.19180       -1.22149
H          3.71603        0.98970       -7.05504
H          5.01535       -1.19957       -7.76055
H          4.70063        1.75890       -4.72892
H          7.25654        1.14358       -3.74775
H          7.53406       -0.63867       -3.75377
C          7.73654        1.59805       -1.19263
C          6.38937       -0.01200        0.08465
C          8.21186       -0.89366       -1.27038
H          6.95729        2.38415       -1.15450
H          8.38634        1.69972       -0.29551
H          8.40084        1.77099       -2.06107
H          6.11496       -1.07088        0.10188
H          7.07405        0.14204        0.93732
H          5.53583        0.68575        0.15615
H          7.76278       -1.91345       -1.30901
H          8.90012       -0.78055       -2.12888
H          8.84773       -0.84442       -0.35926
