78
speciation27.ct
Mg         0.59939        1.22947        0.24208
H          2.11700        2.24041       -1.85425
C          0.27423        3.38171       -2.09898
C          1.02494        2.05461       -1.79415
C          0.56171        3.93737       -3.51342
H         -0.81927        3.23410       -1.99980
H          0.56824        4.14192       -1.34845
H          1.64851        4.14187       -3.61511
H          0.26492        3.19532       -4.28747
C         -0.20363        5.24012       -3.78837
H          0.79651        1.30446       -2.57603
H         -1.30185        5.06887       -3.76552
H          0.05533        6.01725       -3.03823
H          0.06017        5.63249       -4.79585
C         -1.09080        2.68407        4.37844
C         -1.10636        1.38345        4.83182
C         -1.60559        0.60354        3.81660
C         -1.82901        1.37745        2.75617
N         -1.53347        2.72268        3.04017
C         -2.43292        0.86952        1.48654
N         -1.64996        0.99487        0.22247
C         -2.51878        0.50723       -0.94130
H         -0.77611        1.03334        5.80165
H         -0.73034        3.53481        4.94447
H         -1.79321       -0.45833        3.85859
H         -3.38749        1.43142        1.40759
H         -2.66461       -0.19163        1.67637
C         -3.60112        1.55748       -1.27400
C         -1.69608        0.29728       -2.22869
C         -3.23428       -0.85897       -0.69174
H         -3.14077        2.54325       -1.49966
H         -4.19344        1.26288       -2.16933
H         -4.33634        1.70922       -0.44958
H         -0.87089       -0.42277       -2.06821
H         -2.34617       -0.10385       -3.04580
H         -1.33853        1.24851       -2.63239
H         -2.50064       -1.66217       -0.49380
H         -3.98077       -0.80792        0.12590
H         -3.83478       -1.14785       -1.58811
Mg        -0.04269       -0.07649        0.18921
H          2.61262        3.16202        0.77378
C          1.85182        2.67082        2.70254
C          1.61610        2.97672        1.23146
C          2.46914        3.78917        3.57204
H          0.89827        2.36769        3.09687
H          2.51918        1.81192        2.73462
H          3.50024        4.00662        3.22854
H          1.85284        4.71041        3.49497
C          2.54940        3.37426        5.05456
H          1.02518        3.90430        1.08362
H          2.13537        4.15257        5.72813
H          2.93482        2.33712        5.20241
H          3.39060        3.84077        5.56077
C          5.46195        1.41963        0.70583
C          6.14183        0.20080        0.60617
C          5.22632       -0.75071        0.21426
C          4.03525       -0.13728        0.08803
N          4.13798        1.23009        0.40542
C          2.74597       -0.83902       -0.26807
N          1.72830       -0.64483        0.74744
C          1.85317       -1.48698        2.00541
H          7.18442        0.07348        0.81594
H          5.89501        2.36872        0.99713
H          5.41949       -1.79487        0.06287
H          2.90568       -1.91078       -0.51809
H          2.40584       -0.37512       -1.18997
C          3.06333       -1.09574        2.90193
C          0.60448       -1.29565        2.84972
C          1.99100       -2.99519        1.71080
H          3.02172       -0.06689        3.26748
H          3.08380       -1.71918        3.81352
H          4.03318       -1.26901        2.41302
H         -0.30486       -1.60074        2.27902
H          0.64795       -1.89960        3.78710
H          0.56471       -0.23185        3.11416
H          1.10907       -3.38911        1.16400
H          2.91438       -3.23056        1.14693
H          2.08597       -3.56713        2.66490
