81
speciation5.ct
Mg         0.96567        0.03896        0.35218
C          1.36528        0.64946        3.13067
C         -0.75784        1.48478        2.48670
O          0.53748        1.06396        2.04484
C          0.77947       -0.42662        4.04625
C         -0.71995        2.79660        3.31279
H          2.28671        0.22794        2.69608
H          1.70777        1.52201        3.72860
H         -1.40429        1.65093        1.61094
H         -1.29047        0.69797        3.05071
H         -0.30053        3.63772        2.73398
H         -1.74715        3.09092        3.61710
H         -0.12786        2.69322        4.24610
H          0.43060       -1.28409        3.43999
H          1.56403       -0.76453        4.75607
H         -0.05485       -0.02686        4.65650
C          0.40319        0.24353       -2.49971
C         -0.05706        0.92262       -3.60331
C         -0.56358        2.10874       -3.14511
C         -0.40105        2.10237       -1.77178
N          0.19164        0.94250       -1.35872
C         -0.82289        3.26720       -0.92620
N         -2.17794        3.68577       -1.33190
C         -2.80770        4.78343       -0.56425
H         -0.02378        0.60282       -4.63832
H          0.88631       -0.72328       -2.53558
H         -1.00332        2.89792       -3.74537
H         -0.76338        3.00865        0.13699
H         -0.11392        4.09264       -1.12799
C         -1.88950        6.01906       -0.42500
C         -4.07494        5.22254       -1.33265
C         -3.22572        4.27206        0.82087
H         -1.59017        6.40229       -1.42414
H         -2.41768        6.83622        0.11347
H         -0.97365        5.78394        0.15661
H         -4.74692        4.35170       -1.49236
H         -4.63560        5.99099       -0.75999
H         -3.81054        5.64433       -2.32205
H         -3.88282        3.38231        0.71832
H         -2.33912        3.99391        1.41305
H         -3.77248        5.05936        1.38351
C         -0.55914       -2.39738       -0.53761
C          1.05199       -2.95209        1.12702
O          0.45235       -1.91467        0.33881
C         -1.76726       -2.99508        0.19031
C          1.66581       -4.12171        0.31712
H         -0.93832       -1.55359       -1.13948
H         -0.14023       -3.10948       -1.28251
H          1.86067       -2.51466        1.71844
H          0.35197       -3.33942        1.89029
H          2.39994       -3.75777       -0.43037
H          2.18624       -4.82662        1.00440
H          0.88669       -4.72262       -0.19928
H         -2.23612       -2.22256        0.83085
H         -2.50638       -3.35181       -0.55883
H         -1.48905       -3.87159        0.80973
C          3.88130       -0.71847        0.79774
C          5.18220       -0.42689        0.47759
C          5.14093        0.61088       -0.40857
C          3.80407        0.91171       -0.58619
N          3.01504        0.07774        0.13062
C          3.32991        2.05086       -1.42158
N          2.50952        2.98859       -0.64522
C          3.15015        3.83299        0.39676
H          6.07046       -0.90635        0.87784
H          3.61362       -1.47501        1.51407
H          5.99211        1.11197       -0.85423
H          4.17802        2.57569       -1.90967
H          2.71239        1.63599       -2.24123
C          4.28233        4.70375       -0.17206
C          2.04441        4.74525        0.94088
C          3.68713        3.00748        1.57986
H          3.90618        5.33689       -1.00231
H          4.69125        5.36527        0.62325
H          5.12084        4.07914       -0.54274
H          1.20378        4.12067        1.28859
H          2.40420        5.35990        1.79400
H          1.65955        5.42138        0.14971
H          2.89375        2.34850        1.95230
H          4.57185        2.40648        1.31704
H          4.01293        3.66687        2.41162
