95

Na     -0.029790000000000     -2.342600000000000     -0.922880000000000
C       1.154120000000000     -0.009540000000000      0.980670000000000
C      -1.153800000000000      0.025110000000000      0.979930000000000
O       0.000130000000000     -0.004660000000000      0.164970000000000
C       2.397480000000000     -0.030260000000000      0.097760000000000
C      -2.397590000000000      0.018130000000000      0.097710000000000
H       1.199440000000000      0.909620000000000      1.608250000000000
H       1.179270000000000     -0.919100000000000      1.622860000000000
H      -1.198850000000000     -0.874100000000000      1.635830000000000
H      -1.178910000000000      0.954850000000000      1.591710000000000
H      -2.424340000000000     -0.900820000000000     -0.525720000000000
H      -3.309760000000000      0.043610000000000      0.731700000000000
H      -2.403550000000000      0.907050000000000     -0.568350000000000
H       2.423510000000000      0.868610000000000     -0.554350000000000
H       3.310260000000000     -0.035560000000000      0.731290000000000
H       2.403260000000000     -0.939620000000000     -0.540180000000000
Na      0.029370000000000      2.340220000000000     -0.927390000000000
Mg      0.285470000000000      1.501870000000000      8.943569999999999
H       1.989850000000000      3.538830000000000      9.670010000000000
C       3.254170000000000      1.778540000000000      9.294850000000000
C       2.000190000000000      2.445380000000000      9.844120000000000
C       3.407230000000000      2.097350000000000      7.814180000000000
H       4.151100000000000      2.130900000000000      9.842940000000000
H       3.165110000000000      0.681920000000000      9.439170000000001
H       2.459370000000000      1.895590000000000      7.306210000000000
H       3.622110000000000      3.178370000000000      7.688880000000000
C       4.503930000000000      1.254160000000000      7.170530000000000
H       1.926000000000000      2.246130000000000     10.935800000000000
H       5.476060000000000      1.435610000000000      7.673030000000000
H       4.251780000000000      0.172770000000000      7.243200000000000
H       4.593330000000000      1.517990000000000      6.096020000000000
C       1.543360000000000     -3.757640000000000      8.227100000000000
C       1.799520000000000     -2.664790000000000      7.429770000000000
C       1.574610000000000     -1.536910000000000      8.200799999999999
C       1.189370000000000     -1.925650000000000      9.414830000000000
N       1.168190000000000     -3.331580000000000      9.511020000000000
C       0.803750000000000     -1.016420000000000     10.547050000000000
N      -0.547130000000000     -0.467730000000000     10.319620000000000
C      -1.600680000000000     -0.932000000000000     11.246169999999999
H       2.105330000000000     -2.699610000000000      6.390810000000000
H       1.611580000000000     -4.792060000000000      7.921500000000000
H       1.686370000000000     -0.516830000000000      7.885900000000000
H       1.532650000000000     -0.194360000000000     10.648140000000000
H       0.886150000000000     -1.572280000000000     11.494640000000000
C      -1.361810000000000     -0.302410000000000     12.628209999999999
C      -2.980880000000000     -0.478350000000000     10.726340000000000
C      -1.660340000000000     -2.472120000000000     11.314430000000000
H      -1.351220000000000      0.806070000000000     12.546400000000000
H      -2.161430000000000     -0.595780000000000     13.336630000000000
H      -0.385310000000000     -0.610810000000000     13.049899999999999
H      -3.165940000000000     -0.888940000000000      9.714560000000001
H      -3.793430000000000     -0.828720000000000     11.395830000000000
H      -3.091000000000000      0.611480000000000     10.680800000000000
H      -1.846360000000000     -2.885750000000000     10.300530000000000
H      -0.735680000000000     -2.929830000000000     11.706550000000000
H      -2.488020000000000     -2.788330000000000     11.982410000000000
Mg     -1.279940000000000     -0.919470000000000      7.989820000000000
H      -1.835560000000000     -2.925150000000000      6.218290000000000
C      -3.505610000000000     -3.137190000000000      7.624460000000000
C      -2.045750000000000     -2.807210000000000      7.298740000000000
C      -4.506580000000000     -2.353850000000000      6.770010000000000
H      -3.645730000000000     -4.211450000000000      7.383700000000000
H      -3.717810000000000     -3.007080000000000      8.708869999999999
H      -4.231130000000000     -2.469150000000000      5.699420000000000
H      -5.517550000000000     -2.788360000000000      6.919030000000000
C      -4.584450000000000     -0.878260000000000      7.128590000000000
H      -1.408080000000000     -3.528610000000000      7.855240000000000
H      -4.939670000000000     -0.750140000000000      8.172300000000000
H      -3.594860000000000     -0.413200000000000      7.015250000000000
H      -5.299780000000000     -0.368540000000000      6.449370000000000
C      -1.469870000000000      5.076480000000000      9.258789999999999
C      -1.467040000000000      4.369390000000000     10.442449999999999
C      -1.788390000000000      3.068080000000000     10.123820000000000
C      -1.966340000000000      3.028120000000000      8.803319999999999
N      -1.764910000000000      4.310100000000000      8.271369999999999
C      -2.336500000000000      1.824150000000000      7.962050000000000
N      -1.144860000000000      1.100760000000000      7.465970000000000
C      -0.800510000000000      1.287480000000000      6.025270000000000
H      -1.247640000000000      4.754910000000000     11.431490000000000
H      -1.254760000000000      6.125690000000000      9.146300000000000
H      -1.855940000000000      2.271210000000000     10.834540000000001
H      -3.032200000000000      2.151070000000000      7.174180000000000
H      -2.934070000000000      1.134130000000000      8.573119999999999
C      -0.441280000000000      2.756690000000000      5.755580000000000
C       0.399450000000000      0.407320000000000      5.621930000000000
C      -1.955530000000000      0.826580000000000      5.104220000000000
H       0.419300000000000      3.063310000000000      6.390550000000000
H      -0.168390000000000      2.904020000000000      4.690510000000000
H      -1.300020000000000      3.418920000000000      5.971070000000000
H       0.191560000000000     -0.669520000000000      5.794760000000000
H       0.633650000000000      0.541140000000000      4.542360000000000
H       1.311340000000000      0.674600000000000      6.149230000000000
H      -2.165730000000000     -0.252440000000000      5.266530000000000
H      -2.892600000000000      1.394020000000000      5.235300000000000
H      -1.667720000000000      0.953560000000000      4.040360000000000
