95

Na     -0.978470000000000     -2.148810000000000      0.766380000000000
C       1.292990000000000     -0.447890000000000     -0.795670000000000
C       0.718030000000000      0.580700000000000      1.188570000000000
O       0.216760000000000      0.009690000000000     -0.002750000000000
C       0.749510000000000     -1.055830000000000     -2.083740000000000
C      -0.446000000000000      1.063290000000000      2.046180000000000
H       1.963940000000000      0.395590000000000     -1.076650000000000
H       1.866570000000000     -1.240180000000000     -0.263040000000000
H       1.284630000000000     -0.173250000000000      1.781200000000000
H       1.361040000000000      1.461790000000000      0.963380000000000
H      -1.110690000000000      0.212670000000000      2.306030000000000
H      -0.060740000000000      1.514490000000000      2.985700000000000
H      -1.036390000000000      1.828850000000000      1.499390000000000
H       0.178310000000000     -0.295730000000000     -2.657990000000000
H       1.590180000000000     -1.418880000000000     -2.713060000000000
H       0.081780000000000     -1.913150000000000     -1.853770000000000
Na     -0.696030000000000      2.046410000000000     -1.319610000000000
Mg     -1.812330000000000      0.205540000000000     10.114360000000000
H      -2.492820000000000     -2.397170000000000     11.181060000000000
C      -4.265910000000000     -1.565160000000000     10.253940000000000
C      -2.966200000000000     -1.401070000000000     11.018739999999999
C      -4.133530000000000     -2.371080000000000      8.948900000000000
H      -4.983310000000000     -2.091070000000000     10.913460000000001
H      -4.636930000000000     -0.548140000000000     10.040310000000000
H      -3.396100000000000     -1.909620000000000      8.257450000000000
H      -3.804070000000000     -3.406660000000000      9.179670000000000
C      -5.490950000000000     -2.458820000000000      8.250970000000001
H      -3.143050000000000     -0.950210000000000     12.011270000000000
H      -6.241740000000000     -2.921600000000000      8.926810000000000
H      -5.844650000000000     -1.449060000000000      7.971400000000000
H      -5.418110000000000     -3.070330000000000      7.327650000000000
C       0.311410000000000     -4.376900000000000      6.866410000000000
C      -0.957360000000000     -4.248520000000000      7.385550000000000
C      -0.844360000000000     -4.258540000000000      8.764210000000000
C       0.453200000000000     -4.363980000000000      9.066820000000000
N       1.247220000000000     -4.449200000000000      7.912120000000000
C       1.015120000000000     -4.391050000000000     10.453550000000000
N       0.625550000000000     -3.176400000000000     11.170809999999999
C       0.806630000000000     -3.146600000000000     12.643850000000000
H      -1.869670000000000     -4.152710000000000      6.809310000000000
H       0.568660000000000     -4.403270000000000      5.818980000000000
H      -1.651650000000000     -4.177970000000000      9.475310000000000
H       0.638090000000000     -5.301350000000000     10.954110000000000
H       2.122440000000000     -4.438050000000000     10.384800000000000
C       2.292510000000000     -3.367710000000000     12.983420000000001
C       0.383000000000000     -1.764930000000000     13.157190000000000
C      -0.054510000000000     -4.211840000000000     13.368359999999999
H       2.917120000000000     -2.615980000000000     12.454560000000001
H       2.469720000000000     -3.272220000000000     14.075939999999999
H       2.623910000000000     -4.381450000000000     12.675319999999999
H      -0.689230000000000     -1.580450000000000     12.933240000000000
H       0.520710000000000     -1.692030000000000     14.259390000000000
H       0.991360000000000     -0.974270000000000     12.673940000000000
H      -1.136960000000000     -4.049760000000000     13.180300000000001
H       0.206700000000000     -5.245290000000000     13.067489999999999
H       0.116140000000000     -4.159820000000000     14.467599999999999
Mg     -0.585630000000000     -1.839230000000000     10.091320000000000
H       0.079000000000000      0.753900000000000      8.991700000000000
C       0.679930000000000     -0.759720000000000      7.561760000000000
C       0.468940000000000     -0.290390000000000      8.988650000000000
C      -0.550020000000000     -0.587400000000000      6.652180000000000
H       1.513270000000000     -0.171510000000000      7.131030000000000
H       0.968510000000000     -1.823280000000000      7.618910000000000
H      -1.433360000000000     -1.128810000000000      7.054070000000000
H      -0.803870000000000      0.490730000000000      6.565170000000000
C      -0.237300000000000     -1.107150000000000      5.248910000000000
H       1.418110000000000     -0.293920000000000      9.553179999999999
H       0.641480000000000     -0.573640000000000      4.827110000000000
H      -0.009740000000000     -2.188700000000000      5.282110000000000
H      -1.104780000000000     -0.955280000000000      4.574270000000000
C      -5.337250000000000      1.222990000000000      8.070169999999999
C      -4.126750000000000      1.060380000000000      7.434480000000000
C      -3.165880000000000      1.690590000000000      8.204650000000001
C      -3.773370000000000      2.195600000000000      9.282800000000000
N      -5.154160000000000      1.942240000000000      9.263270000000000
C      -3.091510000000000      2.942570000000000     10.385800000000000
N      -2.050080000000000      2.105560000000000     10.982950000000001
C      -1.051480000000000      2.758380000000000     11.866470000000000
H      -3.967600000000000      0.529280000000000      6.503800000000000
H      -6.289200000000000      0.848200000000000      7.727660000000000
H      -2.110440000000000      1.753010000000000      7.989830000000000
H      -2.675260000000000      3.872560000000000      9.957800000000001
H      -3.846460000000000      3.196790000000000     11.159390000000000
C      -1.773200000000000      3.426980000000000     13.051500000000001
C      -0.105130000000000      1.680510000000000     12.409219999999999
C      -0.197490000000000      3.813110000000000     11.118340000000000
H      -2.399370000000000      2.678920000000000     13.583690000000001
H      -1.043770000000000      3.856560000000000     13.770910000000001
H      -2.429010000000000      4.252150000000000     12.702990000000000
H       0.437290000000000      1.186140000000000     11.575469999999999
H       0.651120000000000      2.125290000000000     13.094379999999999
H      -0.678390000000000      0.914060000000000     12.968510000000000
H       0.372900000000000      3.351140000000000     10.284950000000000
H      -0.807760000000000      4.643640000000000     10.712710000000000
H       0.531910000000000      4.281570000000000     11.817410000000001
