125

Na      2.345230000000000      0.226280000000000      0.763860000000000
C      -0.257970000000000      1.342840000000000     -0.796670000000000
C      -0.861630000000000      0.329300000000000      1.187520000000000
O      -0.115870000000000      0.181590000000000     -0.003710000000000
C       0.540220000000000      1.177190000000000     -2.085410000000000
C      -0.697360000000000     -0.919250000000000      2.047530000000000
H      -1.323990000000000      1.502540000000000     -1.077320000000000
H       0.140970000000000      2.235830000000000     -0.263880000000000
H      -0.493880000000000      1.198110000000000      1.779630000000000
H      -1.946170000000000      0.444880000000000      0.961910000000000
H       0.370540000000000     -1.068350000000000      2.313780000000000
H      -1.284950000000000     -0.808070000000000      2.983520000000000
H      -1.062810000000000     -1.815770000000000      1.503040000000000
H       0.167990000000000      0.302880000000000     -2.660550000000000
H       0.434180000000000      2.086970000000000     -2.714540000000000
H       1.616770000000000      1.027900000000000     -1.856310000000000
Na     -1.421650000000000     -1.622790000000000     -1.316820000000000
Mg      0.270940000000000     -6.685740000000000      5.794660000000000
C      -0.517680000000000     -8.459429999999999      8.018540000000000
C      -2.598370000000000     -7.576560000000000      7.322870000000000
O      -1.206430000000000     -7.550870000000000      7.196570000000000
C      -0.195000000000000     -9.737790000000000      7.265930000000000
C      -3.183680000000000     -6.865000000000000      6.107520000000000
H       0.439920000000000     -7.982030000000000      8.319450000000000
H      -1.057200000000000     -8.685570000000000      8.941160000000000
H      -2.996450000000000     -8.612290000000000      7.355490000000000
H      -2.888590000000000     -7.006770000000000      8.218760000000000
H      -2.943880000000000     -7.427000000000000      5.182240000000000
H      -4.283840000000000     -6.778710000000000      6.210290000000000
H      -2.752140000000000     -5.847210000000000      6.002150000000000
H       0.445260000000000     -9.512990000000000      6.386370000000000
H       0.351370000000000    -10.430470000000000      7.940920000000000
H      -1.132700000000000    -10.222519999999999      6.928140000000000
H      -0.524450000000000     -7.848470000000000      3.522080000000000
C       0.374940000000000     -6.091330000000000      2.527900000000000
C      -0.554730000000000     -6.739320000000000      3.529920000000000
C       1.827330000000000     -6.556580000000000      2.705760000000000
H       0.011180000000000     -6.359930000000000      1.519350000000000
H       0.317340000000000     -4.989250000000000      2.654390000000000
H       2.216180000000000     -6.272610000000000      3.701180000000000
H       1.887730000000000     -7.662190000000000      2.615040000000000
C       2.719630000000000     -5.914650000000000      1.651290000000000
H      -1.585720000000000     -6.339250000000000      3.482960000000000
H       2.358540000000000     -6.190070000000000      0.638480000000000
H       2.704890000000000     -4.808360000000000      1.757990000000000
H       3.764560000000000     -6.270350000000000      1.769840000000000
C       3.130820000000000     -7.668770000000000      5.813420000000000
C       4.366380000000000     -7.232640000000000      6.236920000000000
C       4.155410000000000     -6.047850000000000      6.927310000000000
C       2.799680000000000     -5.814400000000000      6.892260000000000
N       2.207660000000000     -6.777350000000000      6.190320000000000
C       2.046680000000000     -4.684970000000000      7.535220000000000
N       0.692600000000000     -4.507950000000000      6.974750000000000
C       0.523270000000000     -3.339210000000000      6.091320000000000
H       5.310550000000000     -7.720610000000000      6.049610000000000
H       2.913940000000000     -8.562540000000000      5.238870000000000
H       4.902610000000000     -5.420290000000000      7.387690000000000
H       1.922530000000000     -4.957490000000000      8.582560000000001
H       2.652330000000000     -3.765430000000000      7.555820000000000
C       1.602010000000000     -3.332580000000000      5.001530000000000
C      -0.846590000000000     -3.427170000000000      5.388770000000000
C       0.556510000000000     -2.041940000000000      6.918770000000000
H       1.544080000000000     -4.282640000000000      4.446050000000000
H       1.449100000000000     -2.487410000000000      4.303720000000000
H       2.621660000000000     -3.250690000000000      5.422190000000000
H      -1.675810000000000     -3.416670000000000      6.102970000000000
H      -1.000050000000000     -2.556310000000000      4.718010000000000
H      -0.938160000000000     -4.351680000000000      4.789360000000000
H      -0.232550000000000     -2.059410000000000      7.699710000000000
H       1.530390000000000     -1.902280000000000      7.421620000000000
H       0.386610000000000     -1.161170000000000      6.267530000000000
Mg     -0.850890000000000     -4.874850000000000      9.008229999999999
C      -0.808790000000000     -2.716250000000000     11.195940000000000
C       1.355410000000000     -2.307370000000000     10.297400000000000
O       0.176790000000000     -3.083120000000000     10.253349999999999
C      -1.496640000000000     -1.398690000000000     10.858470000000001
C       2.057730000000000     -2.306390000000000     11.652080000000000
H      -1.562380000000000     -3.521240000000000     11.177659999999999
H      -0.436930000000000     -2.725060000000000     12.236060000000000
H       2.062160000000000     -2.789460000000000      9.596040000000000
H       1.179630000000000     -1.283460000000000      9.909549999999999
H       2.183910000000000     -3.343900000000000     12.025029999999999
H       3.057000000000000     -1.841380000000000     11.537369999999999
H       1.485540000000000     -1.709620000000000     12.388550000000000
H      -1.908670000000000     -1.415010000000000      9.833489999999999
H      -2.332600000000000     -1.235960000000000     11.570250000000000
H      -0.783370000000000     -0.557410000000000     10.942679999999999
H      -2.375700000000000     -2.778540000000000      8.177630000000001
C      -3.918310000000000     -3.677380000000000      9.388330000000000
C      -2.734970000000000     -3.795710000000000      8.425129999999999
C      -4.951000000000000     -2.633760000000000      8.937690000000000
H      -4.418770000000000     -4.659570000000000      9.493040000000001
H      -3.558990000000000     -3.352880000000000     10.378920000000001
H      -5.749780000000000     -2.592210000000000      9.708810000000000
H      -4.471180000000000     -1.631310000000000      8.885280000000000
C      -5.594590000000000     -2.954000000000000      7.590480000000000
H      -3.110970000000000     -4.255260000000000      7.496850000000000
H      -4.841560000000000     -2.937600000000000      6.775590000000000
H      -6.082660000000000     -3.950290000000000      7.625990000000000
H      -6.361670000000000     -2.184990000000000      7.360990000000000
C      -3.301040000000000     -9.792310000000001     11.064270000000000
C      -3.495270000000000     -9.438380000000000     12.385450000000001
C      -3.149900000000000     -8.104979999999999     12.503500000000001
C      -2.762570000000000     -7.724660000000000     11.301100000000000
N      -2.875910000000000     -8.785450000000001     10.394489999999999
C      -2.252330000000000     -6.370930000000000     10.942130000000001
N      -0.885050000000000     -6.417970000000000     10.418210000000000
C       0.230320000000000     -6.713380000000000     11.380950000000000
H      -3.833090000000000    -10.087020000000001     13.180170000000000
H      -3.464080000000000    -10.761810000000001     10.621390000000000
H      -3.158110000000000     -7.492470000000000     13.391660000000000
H      -2.345420000000000     -5.636740000000000     11.764170000000000
H      -2.897520000000000     -6.008250000000000     10.140040000000001
C       0.352560000000000     -8.236120000000000     11.570390000000000
C       1.584770000000000     -6.245600000000000     10.821940000000000
C       0.042280000000000     -6.035530000000000     12.756840000000000
H       0.546690000000000     -8.730520000000000     10.597619999999999
H       1.195970000000000     -8.484209999999999     12.246549999999999
H      -0.551430000000000     -8.677510000000000     12.013460000000000
H       1.605630000000000     -5.149330000000000     10.708370000000000
H       2.411420000000000     -6.505430000000000     11.523000000000000
H       1.814050000000000     -6.743390000000000      9.858230000000001
H       0.013010000000000     -4.935010000000000     12.654710000000000
H      -0.880950000000000     -6.380480000000000     13.260199999999999
H       0.887210000000000     -6.289140000000000     13.432720000000000
