170

Na      0.350320000000000      0.805170000000000     -1.302140000000000
C       0.466640000000000     -2.367370000000000     -1.218100000000000
C      -1.748550000000000     -1.698620000000000     -0.819340000000000
O      -0.378920000000000     -1.396270000000000     -0.631650000000000
C       0.764850000000000     -2.032020000000000     -2.677620000000000
C      -2.291410000000000     -2.557270000000000      0.321000000000000
H       1.427410000000000     -2.362740000000000     -0.660630000000000
H       0.059190000000000     -3.398370000000000     -1.124200000000000
H      -2.309370000000000     -0.739250000000000     -0.831730000000000
H      -1.945800000000000     -2.186050000000000     -1.798820000000000
H      -2.198780000000000     -2.025540000000000      1.291320000000000
H      -3.364990000000000     -2.773950000000000      0.137280000000000
H      -1.742510000000000     -3.518030000000000      0.383430000000000
H       1.258980000000000     -1.040310000000000     -2.755090000000000
H       1.443210000000000     -2.802210000000000     -3.100250000000000
H      -0.167300000000000     -2.018930000000000     -3.277640000000000
C      -1.628980000000000      0.946850000000000     -3.923430000000000
C      -0.498240000000000      3.025690000000000     -3.608660000000000
O      -0.793680000000000      1.738300000000000     -3.099310000000000
C      -1.017230000000000      0.616000000000000     -5.284320000000000
C      -1.729380000000000      3.915120000000000     -3.774770000000000
H      -1.765960000000000     -0.018030000000000     -3.391370000000000
H      -2.644990000000000      1.381520000000000     -4.017750000000000
H       0.152310000000000      3.516840000000000     -2.853020000000000
H       0.108320000000000      2.974750000000000     -4.536490000000000
H      -2.306750000000000      3.949400000000000     -2.826790000000000
H      -1.404190000000000      4.943750000000000     -4.036380000000000
H      -2.375980000000000      3.543900000000000     -4.595140000000000
H      -0.011000000000000      0.164640000000000     -5.154110000000000
H      -1.671800000000000     -0.111040000000000     -5.809560000000000
H      -0.942770000000000      1.524000000000000     -5.915930000000000
Na     -0.031370000000000     -0.940540000000000      1.658670000000000
C       1.708970000000000      1.796270000000000      1.244470000000000
C      -0.581220000000000      2.272720000000000      1.410620000000000
O       0.395090000000000      1.330410000000000      1.014560000000000
C       2.672510000000000      0.616710000000000      1.148640000000000
C      -0.765290000000000      3.386390000000000      0.379680000000000
H       1.991360000000000      2.533590000000000      0.463460000000000
H       1.827570000000000      2.240500000000000      2.258180000000000
H      -1.546690000000000      1.728120000000000      1.491370000000000
H      -0.376390000000000      2.687350000000000      2.421370000000000
H      -1.045130000000000      2.959530000000000     -0.605440000000000
H      -1.579410000000000      4.063980000000000      0.713400000000000
H       0.162150000000000      3.984490000000000      0.271780000000000
H       2.573240000000000      0.115430000000000      0.161840000000000
H       3.718790000000000      0.970150000000000      1.264980000000000
H       2.458840000000000     -0.123200000000000      1.948290000000000
C       0.871020000000000     -1.143220000000000      4.824110000000000
C       1.620160000000000     -3.003450000000000      3.652830000000000
O       0.982180000000000     -1.752990000000000      3.561140000000000
C       0.153910000000000      0.190020000000000      4.641820000000000
C       1.733390000000000     -3.578040000000000      2.244850000000000
H       0.265730000000000     -1.769400000000000      5.517440000000000
H       1.877640000000000     -0.938310000000000      5.252260000000000
H       2.648580000000000     -2.895930000000000      4.065150000000000
H       1.019040000000000     -3.709240000000000      4.268740000000000
H       2.330240000000000     -2.893890000000000      1.604200000000000
H       2.230870000000000     -4.569730000000000      2.269790000000000
H       0.722630000000000     -3.694350000000000      1.796500000000000
H      -0.859890000000000      0.025560000000000      4.216470000000000
H       0.055580000000000      0.714480000000000      5.614700000000000
H       0.728700000000000      0.835600000000000      3.946210000000000
Mg     -5.447110000000000     -9.271060000000000     -6.736320000000000
C      -4.555510000000000    -11.846539999999999     -5.602530000000000
C      -6.472580000000000    -11.366740000000000     -4.303550000000000
O      -5.568400000000000    -10.928630000000000     -5.275480000000000
C      -4.926560000000000    -12.649970000000000     -6.836040000000000
C      -7.698510000000000    -10.462300000000001     -4.374850000000000
H      -3.635420000000000    -11.265770000000000     -5.829710000000000
H      -4.307150000000000    -12.513090000000000     -4.773380000000000
H      -6.793280000000000    -12.415860000000000     -4.473090000000000
H      -6.019250000000000    -11.241569999999999     -3.308400000000000
H      -8.207839999999999    -10.583720000000000     -5.352250000000000
H      -8.404920000000001    -10.713710000000001     -3.558680000000000
H      -7.405910000000000     -9.395220000000000     -4.280260000000000
H      -5.073130000000000    -11.972650000000000     -7.704280000000000
H      -4.105390000000000    -13.360849999999999     -7.069000000000000
H      -5.858720000000000    -13.219250000000001     -6.648000000000000
H      -7.671330000000000     -9.743700000000000     -8.144010000000000
C      -7.624440000000000     -7.579360000000000     -8.588939999999999
C      -7.622830000000000     -8.756790000000001     -7.639280000000000
C      -6.492840000000000     -7.671750000000000     -9.622570000000000
H      -8.604820000000000     -7.568940000000000     -9.099250000000000
H      -7.512790000000000     -6.647280000000000     -7.995260000000000
H      -5.503010000000000     -7.656810000000000     -9.129910000000001
H      -6.577420000000000     -8.618700000000000    -10.197260000000000
C      -6.558220000000000     -6.491360000000000    -10.583150000000000
H      -8.366510000000000     -8.655430000000001     -6.825690000000000
H      -7.540050000000000     -6.484900000000000    -11.100830000000000
H      -6.429840000000000     -5.537100000000000    -10.027839999999999
H      -5.751900000000000     -6.573440000000000    -11.341790000000000
C      -3.454850000000000     -9.399050000000001     -9.007910000000001
C      -2.253460000000000     -8.823700000000001     -9.356970000000000
C      -1.851820000000000     -8.053140000000001     -8.275370000000001
C      -2.828010000000000     -8.192650000000000     -7.315510000000000
N      -3.796650000000000     -8.973910000000000     -7.786750000000000
C      -2.848680000000000     -7.600090000000000     -5.935400000000000
N      -4.194700000000000     -7.607860000000000     -5.329300000000000
C      -4.865200000000000     -6.295770000000000     -5.265470000000000
H      -1.740630000000000     -8.945959999999999    -10.298620000000000
H      -4.063180000000000    -10.062060000000001     -9.613220000000000
H      -0.961210000000000     -7.448610000000000     -8.201280000000001
H      -2.219960000000000     -8.240650000000000     -5.318210000000000
H      -2.349460000000000     -6.618610000000000     -5.917700000000000
C      -4.858930000000000     -5.625640000000000     -6.644740000000000
C      -6.337850000000000     -6.496200000000000     -4.853120000000000
C      -4.186710000000000     -5.406400000000000     -4.208090000000000
H      -5.344030000000000     -6.303870000000000     -7.365490000000000
H      -5.407150000000000     -4.664660000000000     -6.616130000000000
H      -3.833820000000000     -5.425730000000000     -7.008730000000000
H      -6.428080000000000     -6.955050000000000     -3.863500000000000
H      -6.866940000000000     -5.520830000000000     -4.796790000000000
H      -6.875550000000000     -7.145940000000000     -5.568280000000000
H      -4.203290000000000     -5.902760000000000     -3.215040000000000
H      -3.133290000000000     -5.195100000000000     -4.465880000000000
H      -4.711780000000000     -4.433960000000000     -4.123110000000000
Mg     -3.891510000000000     -9.052940000000000     -3.214770000000000
C      -2.206060000000000     -7.856740000000000     -0.940980000000000
C      -1.269990000000000     -6.598080000000000     -2.729750000000000
O      -2.184710000000000     -7.596070000000000     -2.328820000000000
C      -2.855610000000000     -6.739040000000000     -0.134400000000000
C       0.177960000000000     -6.878220000000000     -2.338700000000000
H      -2.802100000000000     -8.775670000000000     -0.812160000000000
H      -1.213900000000000     -8.125190000000000     -0.536200000000000
H      -1.285100000000000     -6.600590000000000     -3.835970000000000
H      -1.607180000000000     -5.589670000000000     -2.414190000000000
H       0.468420000000000     -7.907020000000000     -2.637190000000000
H       0.835980000000000     -6.153330000000000     -2.857870000000000
H       0.320220000000000     -6.749090000000000     -1.248300000000000
H      -3.866860000000000     -6.507640000000000     -0.514450000000000
H      -2.942960000000000     -7.061080000000000      0.924130000000000
H      -2.238710000000000     -5.823580000000000     -0.182310000000000
H      -5.437300000000000     -7.286900000000000     -1.836200000000000
C      -5.740700000000000     -8.925860000000000     -0.466890000000000
C      -5.578940000000000     -8.383319999999999     -1.888700000000000
C      -6.730830000000000     -8.106700000000000      0.374120000000000
H      -6.080760000000000     -9.979089999999999     -0.501720000000000
H      -4.772840000000000     -8.880860000000000      0.059360000000000
H      -6.757580000000000     -8.549220000000000      1.392870000000000
H      -6.367730000000000     -7.058840000000000      0.463770000000000
C      -8.150399999999999     -8.100400000000000     -0.188520000000000
H      -6.522830000000000     -8.575810000000001     -2.423820000000000
H      -8.183540000000001     -7.602870000000000     -1.179850000000000
H      -8.530849999999999     -9.139070000000000     -0.280720000000000
H      -8.812580000000001     -7.533890000000000      0.499250000000000
C      -4.483340000000000    -14.841970000000000     -2.468180000000000
C      -3.676650000000000    -15.032190000000000     -1.363160000000000
C      -3.270690000000000    -13.781530000000000     -0.936200000000000
C      -3.814340000000000    -12.920220000000000     -1.774740000000000
N      -4.590900000000000    -13.590610000000000     -2.727010000000000
C      -3.623630000000000    -11.442019999999999     -1.744240000000000
N      -3.019440000000000    -10.938350000000000     -2.980130000000000
C      -1.568730000000000    -11.239649999999999     -3.230730000000000
H      -3.398670000000000    -15.980829999999999     -0.927840000000000
H      -4.965600000000000    -15.603999999999999     -3.058950000000000
H      -2.619560000000000    -13.540089999999999     -0.110610000000000
H      -3.072120000000000    -11.090880000000000     -0.852090000000000
H      -4.623260000000000    -11.010429999999999     -1.669450000000000
C      -1.437460000000000    -12.642329999999999     -3.851130000000000
C      -0.968340000000000    -10.264089999999999     -4.257210000000000
C      -0.700520000000000    -11.156120000000000     -1.955140000000000
H      -2.008630000000000    -12.698710000000000     -4.799280000000000
H      -0.378190000000000    -12.874490000000000     -4.083770000000000
H      -1.796690000000000    -13.433830000000000     -3.178200000000000
H      -0.969230000000000     -9.233079999999999     -3.866880000000000
H       0.095720000000000    -10.519930000000000     -4.468540000000000
H      -1.508330000000000    -10.317270000000001     -5.224020000000000
H      -0.729020000000000    -10.138640000000001     -1.523420000000000
H      -1.025660000000000    -11.886860000000000     -1.190280000000000
H       0.359320000000000    -11.392720000000001     -2.191340000000000
