170

Na     -0.183480000000000     -0.002740000000000      1.550210000000000
C       2.577560000000000      0.831250000000000      0.226620000000000
C       0.941190000000000      2.376180000000000     -0.443940000000000
O       1.220010000000000      1.026970000000000     -0.120500000000000
C       2.806430000000000      1.061730000000000      1.718800000000000
C       1.144780000000000      2.647240000000000     -1.933450000000000
H       2.838850000000000     -0.223620000000000     -0.003050000000000
H       3.265790000000000      1.459310000000000     -0.380930000000000
H      -0.124350000000000      2.571220000000000     -0.195790000000000
H       1.536690000000000      3.090910000000000      0.164570000000000
H       0.469060000000000      2.011710000000000     -2.543780000000000
H       0.914520000000000      3.712630000000000     -2.145900000000000
H       2.194960000000000      2.448330000000000     -2.230040000000000
H       2.185300000000000      0.364110000000000      2.319460000000000
H       3.875460000000000      0.883170000000000      1.958410000000000
H       2.554020000000000      2.103950000000000      2.000280000000000
C      -0.458420000000000      2.719940000000000      3.372970000000000
C      -1.847470000000000      0.982290000000000      4.238930000000000
O      -1.000720000000000      1.424850000000000      3.194350000000000
C       0.453320000000000      2.843450000000000      4.593310000000000
C      -3.100270000000000      1.838920000000000      4.415190000000000
H       0.172500000000000      2.918130000000000      2.481080000000000
H      -1.245650000000000      3.501090000000000      3.360050000000000
H      -2.192240000000000     -0.034020000000000      3.949680000000000
H      -1.294750000000000      0.849780000000000      5.191980000000000
H      -3.631360000000000      1.943250000000000      3.445520000000000
H      -3.777240000000000      1.349770000000000      5.146420000000000
H      -2.839890000000000      2.841310000000000      4.810550000000000
H       1.241200000000000      2.061370000000000      4.565420000000000
H       0.938250000000000      3.842290000000000      4.584610000000000
H      -0.128930000000000      2.756810000000000      5.532670000000000
Na      0.367900000000000     -0.336180000000000     -1.848530000000000
C      -1.131520000000000     -2.506580000000000      0.083460000000000
C      -2.572800000000000     -0.744310000000000     -0.479670000000000
O      -1.234260000000000     -1.138330000000000     -0.253620000000000
C       0.325950000000000     -2.938070000000000     -0.052360000000000
C      -3.337070000000000     -0.509350000000000      0.823330000000000
H      -1.437080000000000     -2.659930000000000      1.140120000000000
H      -1.733850000000000     -3.154120000000000     -0.592570000000000
H      -2.540540000000000      0.222030000000000     -1.027790000000000
H      -3.111880000000000     -1.455870000000000     -1.141910000000000
H      -2.826760000000000      0.260460000000000      1.438140000000000
H      -4.360930000000000     -0.149300000000000      0.587990000000000
H      -3.424520000000000     -1.448130000000000      1.406880000000000
H       0.978570000000000     -2.300460000000000      0.582190000000000
H       0.440820000000000     -3.995200000000000      0.267650000000000
H       0.658480000000000     -2.850630000000000     -1.107960000000000
C       0.086990000000000     -2.331830000000000     -4.459430000000000
C       2.325380000000000     -1.935800000000000     -3.985960000000000
O       0.996900000000000     -1.730100000000000     -3.571240000000000
C      -1.323150000000000     -2.049930000000000     -3.952940000000000
C       3.245100000000000     -1.288930000000000     -2.955950000000000
H       0.180820000000000     -1.898980000000000     -5.480640000000000
H       0.231930000000000     -3.433820000000000     -4.481950000000000
H       2.565310000000000     -3.022100000000000     -4.028900000000000
H       2.511070000000000     -1.450590000000000     -4.970320000000000
H       3.083340000000000     -1.753540000000000     -1.959640000000000
H       4.307760000000000     -1.424490000000000     -3.245710000000000
H       3.029510000000000     -0.200800000000000     -2.880400000000000
H      -1.505520000000000     -0.953750000000000     -3.917590000000000
H      -2.076370000000000     -2.519690000000000     -4.618820000000000
H      -1.446130000000000     -2.461820000000000     -2.930090000000000
Mg     -4.185890000000000     -9.420570000000000     -9.218320000000000
C      -3.294290000000000    -11.996169999999999     -8.084660000000000
C      -5.211360000000000    -11.516370000000000     -6.785680000000000
O      -4.307190000000000    -11.078260000000000     -7.757620000000000
C      -3.665340000000000    -12.799600000000000     -9.318170000000000
C      -6.437280000000000    -10.611929999999999     -6.856970000000000
H      -2.374200000000000    -11.415400000000000     -8.311830000000000
H      -3.045940000000000    -12.662720000000000     -7.255510000000000
H      -5.532060000000000    -12.565490000000000     -6.955210000000000
H      -4.758020000000000    -11.391190000000000     -5.790540000000000
H      -6.946620000000000    -10.733340000000000     -7.834380000000000
H      -7.143700000000000    -10.863329999999999     -6.040800000000000
H      -6.144680000000000     -9.544840000000001     -6.762380000000000
H      -3.811910000000000    -12.122280000000000    -10.186410000000000
H      -2.844170000000000    -13.510479999999999     -9.551130000000001
H      -4.597500000000000    -13.368880000000001     -9.130129999999999
H      -6.410100000000000     -9.893330000000001    -10.626130000000000
C      -6.363220000000000     -7.728990000000000    -11.071059999999999
C      -6.361590000000000     -8.906420000000001    -10.121400000000000
C      -5.231620000000000     -7.821370000000000    -12.104690000000000
H      -7.343600000000000     -7.718570000000000    -11.581370000000000
H      -6.251550000000000     -6.796910000000000    -10.477390000000000
H      -4.241790000000000     -7.806420000000000    -11.612019999999999
H      -5.316190000000000     -8.768330000000001    -12.679380000000000
C      -5.297000000000000     -6.641000000000000    -13.065270000000000
H      -7.105270000000000     -8.805050000000000     -9.307810000000000
H      -6.278830000000000     -6.634540000000000    -13.582960000000000
H      -5.168630000000000     -5.686730000000000    -12.509969999999999
H      -4.490680000000000     -6.723070000000000    -13.823910000000000
C      -2.193660000000000     -9.548679999999999    -11.490000000000000
C      -0.992270000000000     -8.973340000000000    -11.839070000000000
C      -0.590650000000000     -8.202760000000000    -10.757490000000001
C      -1.566860000000000     -8.342219999999999     -9.797630000000000
N      -2.535490000000000     -9.123510000000000    -10.268850000000000
C      -1.587490000000000     -7.749630000000000     -8.417520000000000
N      -2.933440000000000     -7.757250000000000     -7.811250000000000
C      -3.603850000000000     -6.445100000000000     -7.747350000000000
H      -0.479430000000000     -9.095620000000000    -12.780709999999999
H      -2.801980000000000    -10.211700000000000    -12.095310000000000
H       0.299970000000000     -7.598250000000000    -10.683400000000001
H      -0.958820000000000     -8.390350000000000     -7.800440000000000
H      -1.088260000000000     -6.768160000000000     -8.399860000000000
C      -3.597690000000000     -5.775130000000000     -9.126700000000000
C      -5.076520000000000     -6.645620000000000     -7.335080000000000
C      -2.925290000000000     -5.555570000000000     -6.689890000000000
H      -4.082780000000000     -6.453460000000000     -9.847390000000001
H      -4.145940000000000     -4.814180000000000     -9.098179999999999
H      -2.572610000000000     -5.575270000000000     -9.490780000000001
H      -5.166790000000000     -7.104530000000000     -6.345490000000000
H      -5.605680000000000     -5.670300000000000     -7.278780000000000
H      -5.614150000000000     -7.295410000000000     -8.050280000000001
H      -2.941860000000000     -6.051900000000000     -5.696830000000000
H      -1.871850000000000     -5.344250000000000     -6.947590000000000
H      -3.450220000000000     -4.583060000000000     -6.604730000000000
Mg     -2.630880000000000     -9.202920000000001     -5.697310000000000
C      -0.944660000000000     -8.005710000000001     -3.422040000000000
C      -0.009770000000000     -6.751350000000000     -5.213130000000000
O      -0.923330000000000     -7.749110000000000     -4.810570000000000
C      -1.593540000000000     -6.885680000000000     -2.616580000000000
C       1.438580000000000     -7.029200000000000     -4.821520000000000
H      -1.541050000000000     -8.924220000000000     -3.291770000000000
H       0.047300000000000     -8.274680000000000     -3.017260000000000
H      -0.024940000000000     -6.753690000000000     -6.319200000000000
H      -0.349910000000000     -5.745130000000000     -4.898520000000000
H       1.730300000000000     -8.057689999999999     -5.119580000000000
H       2.096050000000000     -6.303820000000000     -5.340680000000000
H       1.580720000000000     -6.899690000000000     -3.731150000000000
H      -2.605240000000000     -6.656060000000000     -2.996600000000000
H      -1.681430000000000     -7.208210000000000     -1.558140000000000
H      -0.978090000000000     -5.967420000000000     -2.663060000000000
H      -4.175900000000000     -7.436470000000000     -4.318260000000000
C      -4.479490000000000     -9.075419999999999     -2.948980000000000
C      -4.317720000000000     -8.532880000000000     -4.370780000000000
C      -5.469610000000000     -8.256250000000000     -2.107980000000000
H      -4.819560000000000    -10.128660000000000     -2.983820000000000
H      -3.511700000000000     -9.030400000000000     -2.422670000000000
H      -5.496350000000000     -8.698779999999999     -1.089230000000000
H      -5.106500000000000     -7.208390000000000     -2.018320000000000
C      -6.889170000000000     -8.249969999999999     -2.670620000000000
H      -5.261640000000000     -8.725310000000000     -4.905870000000000
H      -6.922310000000000     -7.752460000000000     -3.661960000000000
H      -7.269600000000000     -9.288650000000001     -2.762820000000000
H      -7.551360000000000     -7.683470000000000     -1.982860000000000
C      -3.222110000000000    -14.991580000000001     -4.950300000000000
C      -2.415430000000000    -15.181820000000000     -3.845280000000000
C      -2.009470000000000    -13.931150000000001     -3.418320000000000
C      -2.553120000000000    -13.069839999999999     -4.256840000000000
N      -3.329680000000000    -13.740220000000001     -5.209120000000000
C      -2.362410000000000    -11.591640000000000     -4.226340000000000
N      -1.758230000000000    -11.088020000000000     -5.462240000000000
C      -0.307520000000000    -11.389300000000000     -5.712880000000000
H      -2.137450000000000    -16.130450000000000     -3.409970000000000
H      -3.704370000000000    -15.753620000000000     -5.541070000000000
H      -1.358340000000000    -13.689719999999999     -2.592730000000000
H      -1.810890000000000    -11.240420000000000     -3.334220000000000
H      -3.362040000000000    -11.160050000000000     -4.151560000000000
C      -0.176260000000000    -12.791990000000000     -6.333250000000000
C       0.292880000000000    -10.413819999999999     -6.739420000000000
C       0.560690000000000    -11.305740000000000     -4.437280000000000
H      -0.747420000000000    -12.848369999999999     -7.281410000000000
H       0.883020000000000    -13.024150000000001     -6.565890000000000
H      -0.535480000000000    -13.583480000000000     -5.660320000000000
H       0.292050000000000     -9.382840000000000     -6.349190000000000
H       1.356950000000000    -10.669660000000000     -6.950730000000000
H      -0.247120000000000    -10.466980000000000     -7.706210000000000
H       0.532150000000000    -10.288240000000000     -4.005560000000000
H       0.235560000000000    -12.036479999999999     -3.672410000000000
H       1.620540000000000    -11.542339999999999     -4.673470000000000
