140

Na     -0.176580000000000     -0.014130000000000      1.556950000000000
C       2.579000000000000      0.833550000000000      0.226730000000000
C       0.943100000000000      2.378600000000000     -0.443000000000000
O       1.221300000000000      1.029490000000000     -0.119110000000000
C       2.806940000000000      1.062150000000000      1.718970000000000
C       1.145270000000000      2.647260000000000     -1.932890000000000
H       2.840290000000000     -0.220950000000000     -0.004550000000000
H       3.267410000000000      1.462540000000000     -0.379930000000000
H      -0.122020000000000      2.574320000000000     -0.193850000000000
H       1.539650000000000      3.093830000000000      0.164130000000000
H       0.470670000000000      2.008540000000000     -2.540990000000000
H       0.912300000000000      3.711560000000000     -2.147430000000000
H       2.195760000000000      2.449810000000000     -2.229510000000000
H       2.183010000000000      0.365270000000000      2.317490000000000
H       3.875190000000000      0.880950000000000      1.959750000000000
H       2.555900000000000      2.104660000000000      2.000800000000000
C      -0.459030000000000      2.721110000000000      3.374240000000000
C      -1.847870000000000      0.983680000000000      4.239980000000000
O      -1.001540000000000      1.426070000000000      3.194740000000000
C       0.453530000000000      2.843400000000000      4.594140000000000
C      -3.101240000000000      1.839680000000000      4.415600000000000
H       0.171430000000000      2.920460000000000      2.482330000000000
H      -1.246190000000000      3.502400000000000      3.362610000000000
H      -2.192150000000000     -0.033140000000000      3.952080000000000
H      -1.295050000000000      0.852310000000000      5.193160000000000
H      -3.632950000000000      1.941170000000000      3.446010000000000
H      -3.777230000000000      1.351660000000000      5.148490000000000
H      -2.841790000000000      2.843290000000000      4.808550000000000
H       1.241920000000000      2.061960000000000      4.563850000000000
H       0.937570000000000      3.842670000000000      4.586910000000000
H      -0.127470000000000      2.754670000000000      5.534100000000000
Na      0.363140000000000     -0.328290000000000     -1.851960000000000
C      -1.133070000000000     -2.507280000000000      0.083500000000000
C      -2.574370000000000     -0.746790000000000     -0.480490000000000
O      -1.235520000000000     -1.139270000000000     -0.253890000000000
C       0.323670000000000     -2.939140000000000     -0.051480000000000
C      -3.337070000000000     -0.510770000000000      0.822890000000000
H      -1.439840000000000     -2.661550000000000      1.139780000000000
H      -1.733340000000000     -3.153170000000000     -0.594630000000000
H      -2.543190000000000      0.218630000000000     -1.030190000000000
H      -3.113680000000000     -1.459770000000000     -1.141330000000000
H      -2.824410000000000      0.258530000000000      1.436370000000000
H      -4.360750000000000     -0.149740000000000      0.588620000000000
H      -3.424490000000000     -1.449350000000000      1.406870000000000
H       0.975560000000000     -2.303710000000000      0.585990000000000
H       0.436530000000000     -3.997610000000000      0.264960000000000
H       0.656980000000000     -2.847790000000000     -1.106460000000000
C       0.087140000000000     -2.333760000000000     -4.459010000000000
C       2.324950000000000     -1.936210000000000     -3.986470000000000
O       0.996770000000000     -1.732360000000000     -3.570090000000000
C      -1.322740000000000     -2.050510000000000     -3.953340000000000
C       3.245320000000000     -1.289570000000000     -2.957370000000000
H       0.181720000000000     -1.899960000000000     -5.479930000000000
H       0.230240000000000     -3.437250000000000     -4.482300000000000
H       2.565610000000000     -3.022170000000000     -4.029930000000000
H       2.509410000000000     -1.450360000000000     -4.970810000000000
H       3.084240000000000     -1.754550000000000     -1.961120000000000
H       4.307510000000000     -1.425600000000000     -3.248610000000000
H       3.029750000000000     -0.201490000000000     -2.881760000000000
H      -1.503830000000000     -0.954170000000000     -3.917440000000000
H      -2.075410000000000     -2.518810000000000     -4.620620000000000
H      -1.446890000000000     -2.463700000000000     -2.931160000000000
Mg     -4.696300000000000    -11.411020000000001     -2.871090000000000
H      -2.102150000000000    -10.699140000000000     -1.804510000000000
C      -1.936070000000000    -12.650710000000000     -2.731580000000000
C      -2.728060000000000    -11.607150000000001     -1.966810000000000
C      -1.304360000000000    -12.133080000000000     -4.036610000000000
H      -1.121880000000000    -13.009010000000000     -2.072080000000000
H      -2.631260000000000    -13.480610000000000     -2.945180000000000
H      -2.072740000000000    -11.725260000000000     -4.728040000000000
H      -0.572350000000000    -11.329840000000001     -3.805860000000000
C      -0.549630000000000    -13.264760000000001     -4.734570000000000
H      -3.030010000000000    -11.985810000000001     -0.974280000000000
H       0.226570000000000    -13.683579999999999     -4.058760000000000
H      -1.247240000000000    -14.075979999999999     -5.014140000000000
H      -0.056510000000000    -12.895910000000001     -5.657900000000000
C      -1.788840000000000     -7.278640000000000     -6.118650000000000
C      -1.266370000000000     -8.441680000000000     -5.599210000000000
C      -1.313780000000000     -8.338580000000000     -4.220520000000000
C      -1.870470000000000     -7.161230000000000     -3.918380000000000
N      -2.193170000000000     -6.431170000000000     -5.072840000000000
C      -2.128160000000000     -6.661140000000000     -2.531420000000000
N      -2.985740000000000     -7.606230000000000     -1.814850000000000
C      -3.102390000000000     -7.465500000000000     -0.341650000000000
H      -0.894020000000000     -9.280390000000001     -6.175340000000000
H      -1.894920000000000     -7.043170000000000     -7.166050000000000
H      -0.980650000000000     -9.078379999999999     -3.509690000000000
H      -1.151410000000000     -6.532440000000000     -2.030690000000000
H      -2.640560000000000     -5.678190000000000     -2.600180000000000
C      -3.654390000000000     -6.068820000000000     -0.001620000000000
C      -4.086870000000000     -8.523899999999999      0.171200000000000
C      -1.749160000000000     -7.678160000000000      0.382690000000000
H      -4.617540000000000     -5.903530000000000     -0.530630000000000
H      -3.825100000000000     -5.962710000000000      1.090880000000000
H      -2.942310000000000     -5.276370000000000     -0.310030000000000
H      -3.710400000000000     -9.544660000000000     -0.052870000000000
H      -4.219070000000000     -8.441530000000000      1.273440000000000
H      -5.075900000000000     -8.392700000000000     -0.311950000000000
H      -1.348090000000000     -8.696560000000000      0.194300000000000
H      -0.985120000000000     -6.934580000000000      0.082230000000000
H      -1.879680000000000     -7.557040000000000      1.481970000000000
Mg     -3.538080000000000     -9.324850000000000     -2.893480000000000
H      -6.116400000000000    -10.047010000000000     -3.993330000000000
C      -5.105790000000000     -8.770040000000000     -5.423030000000000
C      -5.407000000000000     -9.187110000000001     -3.996190000000000
C      -4.640130000000000     -9.921709999999999     -6.332290000000000
H      -6.031960000000000     -8.342660000000000     -5.853910000000000
H      -4.329120000000000     -7.988190000000000     -5.366160000000000
H      -3.729660000000000    -10.416300000000000     -5.930710000000000
H      -5.447230000000000    -10.680300000000001     -6.418890000000000
C      -4.346840000000000     -9.391050000000000     -7.735710000000000
H      -5.879020000000000     -8.363320000000000     -3.432140000000000
H      -5.248110000000000     -8.894800000000000     -8.155370000000000
H      -3.522900000000000     -8.654220000000000     -7.702780000000000
H      -4.047810000000000    -10.218000000000000     -8.412800000000001
C      -3.814940000000000    -14.972770000000001     -4.915370000000000
C      -4.279420000000000    -13.843220000000001     -5.550850000000000
C      -5.305700000000000    -13.325950000000001     -4.780810000000000
C      -5.439080000000000    -14.104910000000000     -3.702630000000000
N      -4.529590000000000    -15.173750000000000     -3.722080000000000
C      -6.427140000000000    -13.887480000000000     -2.599680000000000
N      -6.222890000000000    -12.567220000000001     -2.002610000000000
C      -7.287590000000000    -12.028710000000000     -1.119070000000000
H      -3.899050000000000    -13.439780000000001     -6.481620000000000
H      -3.014490000000000    -15.609780000000001     -5.257810000000000
H      -5.887410000000000    -12.443339999999999     -4.995530000000000
H      -7.440590000000000    -13.992039999999999     -3.027820000000000
H      -6.269910000000000    -14.668540000000000     -1.826120000000000
C      -7.505790000000000    -12.988049999999999      0.065930000000000
C      -6.827280000000000    -10.670230000000000     -0.576350000000000
C      -8.627969999999999    -11.816520000000001     -1.867250000000000
H      -6.544890000000000    -13.156300000000000      0.598160000000000
H      -8.242559999999999    -12.571120000000001      0.785310000000000
H      -7.892500000000000    -13.968579999999999     -0.282570000000000
H      -6.670360000000000     -9.953279999999999     -1.410100000000000
H      -7.590600000000000    -10.237679999999999      0.108800000000000
H      -5.876860000000000    -10.783410000000000     -0.017070000000000
H      -8.513070000000001    -11.091600000000000     -2.700670000000000
H      -9.042140000000000    -12.760289999999999     -2.272840000000000
H      -9.398380000000000    -11.419010000000000     -1.168210000000000
