95

Na      1.425810000000000      1.619130000000000     -1.316970000000000
C       0.851420000000000     -0.337350000000000      1.194900000000000
C       0.246520000000000     -1.349510000000000     -0.789540000000000
O       0.122960000000000     -0.179930000000000     -0.005830000000000
C       0.706620000000000      0.920430000000000      2.044820000000000
C      -0.530150000000000     -1.172860000000000     -2.090010000000000
H       0.456790000000000     -1.193260000000000      1.786620000000000
H       1.935320000000000     -0.480170000000000      0.982910000000000
H       1.311820000000000     -1.537210000000000     -1.055100000000000
H      -0.181300000000000     -2.228670000000000     -0.256120000000000
H      -0.127400000000000     -0.313300000000000     -2.666860000000000
H      -0.439920000000000     -2.090010000000000     -2.710870000000000
H      -1.605310000000000     -0.993400000000000     -1.876590000000000
H      -0.361110000000000      1.098030000000000      2.294030000000000
H       1.277050000000000      0.804240000000000      2.991300000000000
H       1.102250000000000      1.802630000000000      1.497620000000000
Na     -2.345650000000000     -0.223300000000000      0.762850000000000
Mg      0.494500000000000     -2.274340000000000      8.426000000000000
H       3.624450000000000     -2.557820000000000      9.058370000000000
C       2.654110000000000     -1.102180000000000     10.422670000000000
C       2.814960000000000     -1.804010000000000      9.083679999999999
C       2.410120000000000     -2.111140000000000     11.547850000000000
H       3.577020000000000     -0.522340000000000     10.623799999999999
H       1.791080000000000     -0.403480000000000     10.360469999999999
H       1.486300000000000     -2.687370000000000     11.344420000000000
H       3.264680000000000     -2.818560000000000     11.602690000000001
C       2.256170000000000     -1.407630000000000     12.892849999999999
H       2.887950000000000     -1.077690000000000      8.246210000000000
H       3.157720000000000     -0.797070000000000     13.110580000000001
H       1.361850000000000     -0.748520000000000     12.884800000000000
H       2.132820000000000     -2.161570000000000     13.698850000000000
C      -1.077110000000000     -1.383770000000000     10.997669999999999
C      -1.987680000000000     -1.885620000000000     11.910140000000000
C      -2.297010000000000     -3.168590000000000     11.497890000000000
C      -1.561910000000000     -3.382350000000000     10.351610000000001
N      -0.830120000000000     -2.304900000000000     10.050200000000000
C      -1.512860000000000     -4.592180000000000      9.500890000000000
N      -0.113500000000000     -4.843330000000000      9.125260000000001
C       0.619840000000000     -5.877310000000000      9.854460000000000
H      -2.373820000000000     -1.375280000000000     12.782380000000000
H      -0.608070000000000     -0.409990000000000     11.038650000000001
H      -2.980460000000000     -3.858140000000000     11.976039999999999
H      -2.040120000000000     -4.302150000000000      8.582179999999999
H      -2.052300000000000     -5.464610000000000      9.921130000000000
C       0.216490000000000     -7.262820000000000      9.319340000000000
C       2.118830000000000     -5.646730000000000      9.594320000000000
C       0.381270000000000     -5.766590000000000     11.366000000000000
H       0.454980000000000     -7.351180000000000      8.234959999999999
H       0.758720000000000     -8.061719999999999      9.865720000000000
H      -0.871930000000000     -7.434310000000000      9.442310000000001
H       2.433570000000000     -4.649150000000000      9.962590000000001
H       2.735310000000000     -6.427600000000000     10.083840000000000
H       2.351320000000000     -5.672290000000000      8.522610000000000
H       0.627200000000000     -4.740040000000000     11.703540000000000
H      -0.674010000000000     -5.975780000000000     11.627440000000000
H       1.025800000000000     -6.484770000000000     11.909160000000000
Mg     -0.751010000000000     -4.884890000000000      6.788900000000000
H      -2.605750000000000     -6.055530000000000      5.096270000000000
C      -3.276720000000000     -6.671700000000000      7.103380000000000
C      -2.184360000000000     -6.330080000000000      6.081960000000000
C      -4.347580000000000     -5.579740000000000      7.200850000000000
H      -3.776080000000000     -7.608930000000000      6.779360000000000
H      -2.809020000000000     -6.857840000000000      8.093980000000000
H      -3.908640000000000     -4.615670000000000      7.497730000000000
H      -4.824300000000000     -5.457220000000000      6.205070000000000
C      -5.419630000000000     -5.934970000000000      8.227729999999999
H      -1.538340000000000     -7.226780000000000      5.963010000000000
H      -5.905680000000000     -6.898900000000000      7.968240000000000
H      -4.972480000000000     -6.010400000000000      9.242360000000000
H      -6.194370000000000     -5.138880000000000      8.242640000000000
C       0.793880000000000     -5.896550000000000      3.519280000000000
C       1.395470000000000     -6.544630000000000      4.579550000000000
C       1.679500000000000     -5.576770000000000      5.516830000000000
C       1.241080000000000     -4.424070000000000      5.025960000000000
N       0.682730000000000     -4.637190000000000      3.755810000000000
C       1.243460000000000     -3.098780000000000      5.749350000000000
N      -0.019120000000000     -2.935680000000000      6.506790000000000
C      -0.961920000000000     -1.915540000000000      6.001890000000000
H       1.567750000000000     -7.610270000000000      4.683420000000000
H       0.442290000000000     -6.363220000000000      2.613690000000000
H       2.127370000000000     -5.744800000000000      6.470310000000000
H       1.459990000000000     -2.281320000000000      5.033740000000000
H       2.089620000000000     -3.091650000000000      6.469600000000000
C      -1.342870000000000     -2.178230000000000      4.536800000000000
C      -2.237550000000000     -1.979280000000000      6.849380000000000
C      -0.361010000000000     -0.496570000000000      6.166100000000000
H      -1.775700000000000     -3.196120000000000      4.435400000000000
H      -2.093160000000000     -1.432250000000000      4.199640000000000
H      -0.466230000000000     -2.094520000000000      3.866590000000000
H      -2.017150000000000     -1.803820000000000      7.918610000000000
H      -2.969110000000000     -1.208480000000000      6.529360000000000
H      -2.705790000000000     -2.971250000000000      6.739040000000000
H      -0.142840000000000     -0.277960000000000      7.234780000000000
H       0.579540000000000     -0.361970000000000      5.597530000000000
H      -1.078150000000000      0.270940000000000      5.806830000000000
