110

Na      2.046510000000000      1.146870000000000     -0.924170000000000
C      -0.568350000000000      1.003370000000000      0.979080000000000
C       0.556680000000000     -1.011510000000000      0.979910000000000
O       0.002700000000000      0.000340000000000      0.163890000000000
C      -1.171690000000000      2.090350000000000      0.096400000000000
C       1.183900000000000     -2.085740000000000      0.098800000000000
H      -1.387340000000000      0.583950000000000      1.606680000000000
H       0.207520000000000      1.479920000000000      1.620520000000000
H       1.359680000000000     -0.598170000000000      1.630430000000000
H      -0.232940000000000     -1.497420000000000      1.597040000000000
H       1.991790000000000     -1.648780000000000     -0.525850000000000
H       1.619330000000000     -2.886930000000000      0.733810000000000
H       0.416200000000000     -2.535980000000000     -0.565900000000000
H      -1.963360000000000      1.663160000000000     -0.555180000000000
H      -1.623110000000000      2.883380000000000      0.730390000000000
H      -0.386710000000000      2.549560000000000     -0.541340000000000
Na     -2.044440000000000     -1.146470000000000     -0.929260000000000
Mg      7.034370000000000     -1.569770000000000      5.877410000000000
C       5.616670000000000     -0.224600000000000      7.670040000000000
C       4.218240000000000     -0.677580000000000      9.480900000000000
O       5.303000000000000     -1.134960000000000      8.706690000000000
C       6.324480000000000      1.015510000000000      8.149559999999999
C       3.497560000000000     -1.871760000000000     10.095720000000000
H       4.100880000000000     -2.028190000000000      6.889040000000000
H       4.763900000000000      0.015190000000000      7.001090000000000
H       4.610550000000000     -0.037860000000000     10.297490000000000
H       3.467690000000000     -0.114610000000000      8.882510000000000
H       4.202190000000000     -2.478590000000000     10.703049999999999
H       2.676540000000000     -1.510190000000000     10.749580000000000
H       3.059550000000000     -2.516540000000000      9.305059999999999
H       7.195420000000000      0.731670000000000      8.763370000000000
H       6.660290000000000      1.586100000000000      7.259970000000000
H       5.626040000000000      1.629300000000000      8.748170000000000
H       6.943230000000000     -0.145770000000000      3.607980000000000
C       9.099660000000000     -0.006140000000000      3.876760000000000
C       7.665500000000000     -0.025990000000000      4.436610000000000
C       9.521649999999999     -1.332270000000000      3.230710000000000
H       9.163510000000000      0.803000000000000      3.116250000000000
H       9.796320000000000      0.253500000000000      4.687900000000000
H       9.450519999999999     -2.149410000000000      3.977780000000000
H       8.850619999999999     -1.551110000000000      2.376490000000000
C      10.954810000000000     -1.286450000000000      2.693240000000000
H       7.479830000000000      0.949310000000000      4.934870000000000
H      11.063549999999999     -0.482090000000000      1.935290000000000
H      11.684200000000001     -1.114470000000000      3.511010000000000
H      11.202560000000000     -2.256430000000000      2.210390000000000
C       6.375920000000000     -3.282050000000000      3.623650000000000
C       5.614110000000000     -4.256050000000000      3.033570000000000
C       4.695920000000000     -4.652060000000000      3.974970000000000
C       4.924800000000000     -3.889140000000000      5.099840000000000
N       5.975670000000000     -3.050590000000000      4.876300000000000
C       4.077400000000000     -3.980310000000000      6.336180000000000
N       3.384320000000000     -2.722760000000000      6.645150000000000
C       2.439530000000000     -2.122160000000000      5.668970000000000
H       5.720380000000000     -4.623150000000000      2.026600000000000
H       7.184090000000000     -2.752900000000000      3.157500000000000
H       3.925460000000000     -5.399620000000000      3.847430000000000
H       3.328410000000000     -4.793650000000000      6.239660000000000
H       4.700740000000000     -4.268590000000000      7.204830000000000
C       1.443250000000000     -3.171610000000000      5.148570000000000
C       1.654860000000000     -1.021750000000000      6.410380000000000
C       3.168680000000000     -1.443780000000000      4.481610000000000
H       0.925560000000000     -3.661570000000000      6.000870000000000
H       0.686420000000000     -2.699730000000000      4.487420000000000
H       1.965580000000000     -3.950000000000000      4.556610000000000
H       2.344590000000000     -0.240300000000000      6.792970000000000
H       0.928600000000000     -0.524910000000000      5.730910000000000
H       1.100040000000000     -1.446990000000000      7.273320000000000
H       3.921330000000000     -0.710700000000000      4.843830000000000
H       3.671170000000000     -2.163310000000000      3.817470000000000
H       2.444670000000000     -0.905880000000000      3.836960000000000
Mg     10.410890000000000     -2.855070000000000      6.096230000000000
H      11.345560000000001     -4.114570000000000      3.975570000000000
C      10.330550000000001     -5.705940000000000      5.049280000000000
C      11.238910000000001     -4.497700000000000      5.011280000000000
C       8.922050000000000     -5.310920000000000      4.613210000000000
H      10.742310000000000     -6.491690000000000      4.382110000000000
H      10.306800000000001     -6.101600000000000      6.084110000000000
H       8.557710000000000     -4.488090000000000      5.257580000000000
H       8.935359999999999     -4.938460000000000      3.566720000000000
C       7.971880000000000     -6.497190000000000      4.729070000000000
H      12.245509999999999     -4.745190000000000      5.409830000000000
H       8.308320000000000     -7.322000000000000      4.067630000000000
H       7.929000000000000     -6.857680000000000      5.779250000000000
H       6.952260000000000     -6.195970000000000      4.427120000000000
C      13.021599999999999     -1.517370000000000      8.404660000000000
C      13.086720000000000     -1.085340000000000      7.100290000000000
C      11.812540000000000     -0.715240000000000      6.728720000000000
C      10.993100000000000     -0.934330000000000      7.763440000000000
N      11.703390000000001     -1.426210000000000      8.873200000000001
C       9.496829999999999     -0.831810000000000      7.721320000000000
N       8.922689999999999     -2.152700000000000      7.398280000000000
C       8.576689999999999     -3.109700000000000      8.480549999999999
H      13.969310000000000     -1.076870000000000      6.475080000000000
H      13.848490000000000     -1.895950000000000      8.983969999999999
H      11.534260000000000     -0.392250000000000      5.741770000000000
H       9.216010000000001     -0.152410000000000      6.890410000000000
H       9.099930000000001     -0.351580000000000      8.629220000000000
C       8.278840000000001     -2.426090000000000      9.831610000000000
C       7.301960000000000     -3.866720000000000      8.062770000000000
C       9.702730000000001     -4.129350000000000      8.653810000000000
H       7.473280000000000     -1.674000000000000      9.720409999999999
H       7.940580000000000     -3.174760000000000     10.578950000000001
H       9.181910000000000     -1.927780000000000     10.236000000000001
H       7.405500000000000     -4.357100000000000      7.079410000000000
H       7.040470000000000     -4.655920000000000      8.800979999999999
H       6.453460000000000     -3.164530000000000      7.994820000000000
H       9.849819999999999     -4.690010000000000      7.715490000000000
H      10.651899999999999     -3.636410000000000      8.917339999999999
H       9.451420000000001     -4.854500000000000      9.455830000000001
