140

Na     -0.479150000000000     -1.208820000000000     -0.857190000000000
C      -2.503470000000000      0.903880000000000      0.373160000000000
C      -1.114800000000000      2.018530000000000     -1.158330000000000
O      -1.207500000000000      0.992510000000000     -0.187940000000000
C      -3.400400000000000     -0.022390000000000     -0.445990000000000
C      -0.705810000000000      3.348880000000000     -0.528370000000000
H      -2.403810000000000      0.474110000000000      1.392540000000000
H      -2.978240000000000      1.901290000000000      0.503740000000000
H      -0.332030000000000      1.723680000000000     -1.890040000000000
H      -2.053930000000000      2.138410000000000     -1.740870000000000
H       0.287220000000000      3.262600000000000     -0.039000000000000
H      -0.642130000000000      4.124360000000000     -1.320760000000000
H      -1.453150000000000      3.674900000000000      0.223670000000000
H      -2.965600000000000     -1.043210000000000     -0.492160000000000
H      -4.401060000000000     -0.083040000000000      0.031000000000000
H      -3.527060000000000      0.363170000000000     -1.477720000000000
C      -1.616290000000000     -0.931890000000000     -3.931860000000000
C      -0.400230000000000     -2.968210000000000     -3.662170000000000
O      -0.784450000000000     -1.724620000000000     -3.105440000000000
C      -2.969500000000000     -1.571940000000000     -4.237960000000000
C       0.434710000000000     -2.836350000000000     -4.934950000000000
H      -1.824740000000000     -0.002160000000000     -3.361780000000000
H      -1.091150000000000     -0.605230000000000     -4.852390000000000
H       0.246550000000000     -3.461170000000000     -2.904460000000000
H      -1.267990000000000     -3.646030000000000     -3.800150000000000
H       1.296830000000000     -2.159120000000000     -4.757870000000000
H       0.816240000000000     -3.837040000000000     -5.226920000000000
H      -0.180880000000000     -2.449670000000000     -5.771870000000000
H      -3.473520000000000     -1.864110000000000     -3.293360000000000
H      -3.607620000000000     -0.837740000000000     -4.773180000000000
H      -2.850880000000000     -2.459020000000000     -4.892410000000000
Na      0.583760000000000      1.254180000000000      1.328540000000000
C       1.528140000000000     -1.877010000000000      1.341260000000000
C       2.652580000000000     -0.665230000000000     -0.321970000000000
O       1.468420000000000     -0.790960000000000      0.439560000000000
C       0.404900000000000     -1.729230000000000      2.363640000000000
C       2.706140000000000     -1.661100000000000     -1.480520000000000
H       1.371200000000000     -2.831430000000000      0.795510000000000
H       2.488000000000000     -1.905420000000000      1.904210000000000
H       2.652980000000000      0.356850000000000     -0.758520000000000
H       3.564920000000000     -0.730330000000000      0.309650000000000
H       1.826530000000000     -1.530500000000000     -2.144010000000000
H       3.625940000000000     -1.481320000000000     -2.076270000000000
H       2.733160000000000     -2.704430000000000     -1.106000000000000
H      -0.578920000000000     -1.665750000000000      1.850800000000000
H       0.394900000000000     -2.604880000000000      3.046490000000000
H       0.551950000000000     -0.810620000000000      2.969520000000000
C       2.391570000000000      1.903800000000000      4.009600000000000
C       0.142130000000000      2.281010000000000      4.445590000000000
O       1.080170000000000      1.809950000000000      3.509020000000000
C       3.344080000000000      1.396230000000000      2.932640000000000
C      -1.248660000000000      2.111710000000000      3.843960000000000
H       2.657350000000000      2.960830000000000      4.235980000000000
H       2.515700000000000      1.262570000000000      4.910700000000000
H       0.185770000000000      1.686570000000000      5.385750000000000
H       0.301140000000000      3.362760000000000      4.653920000000000
H      -1.437790000000000      1.038970000000000      3.624500000000000
H      -2.023410000000000      2.474410000000000      4.550900000000000
H      -1.328330000000000      2.688280000000000      2.896680000000000
H       3.250070000000000      2.015530000000000      2.014280000000000
H       4.393470000000000      1.439570000000000      3.290520000000000
H       3.098510000000000      0.344900000000000      2.676840000000000
Mg     -7.523330000000000     -4.556250000000000     -2.394410000000000
H      -6.254380000000000     -2.457700000000000     -4.465960000000000
C      -5.968040000000000     -4.549150000000000     -5.148210000000000
C      -6.091420000000000     -3.479990000000000     -4.075270000000000
C      -7.209270000000000     -4.574600000000000     -6.043670000000000
H      -5.064230000000000     -4.332660000000000     -5.752290000000000
H      -5.848890000000000     -5.539290000000000     -4.655890000000000
H      -8.108969999999999     -4.792900000000000     -5.435320000000000
H      -7.338970000000000     -3.582240000000000     -6.525340000000000
C      -7.084910000000000     -5.643390000000000     -7.125120000000000
H      -5.250290000000000     -3.528910000000000     -3.352100000000000
H      -6.173560000000000     -5.466650000000000     -7.734290000000000
H      -7.027530000000000     -6.653620000000000     -6.666310000000000
H      -7.972320000000000     -5.607560000000000     -7.791830000000000
C      -8.333480000000000     -7.211840000000000     -3.854790000000000
C      -9.463699999999999     -7.918100000000000     -4.228970000000000
C     -10.547969999999999     -7.203340000000000     -3.755320000000000
C     -10.027290000000001     -6.101920000000000     -3.113820000000000
N      -8.686570000000000     -6.113250000000000     -3.174090000000000
C     -10.743280000000000     -5.005700000000000     -2.428850000000000
N     -10.102359999999999     -3.731130000000000     -2.783510000000000
C     -10.738540000000000     -2.900890000000000     -3.805550000000000
H      -9.490910000000000     -8.841200000000001     -4.790040000000000
H      -7.310880000000000     -7.481890000000000     -4.089840000000000
H     -11.594690000000000     -7.462700000000000     -3.863530000000000
H     -10.546049999999999     -5.173150000000000     -1.361410000000000
H     -11.844440000000001     -5.032470000000000     -2.560930000000000
C     -11.924410000000000     -2.143030000000000     -3.182520000000000
C      -9.687239999999999     -1.888930000000000     -4.294090000000000
C     -11.179729999999999     -3.742930000000000     -5.010190000000000
H     -11.579510000000001     -1.487200000000000     -2.351000000000000
H     -12.424080000000000     -1.511310000000000     -3.945510000000000
H     -12.673730000000001     -2.848320000000000     -2.769920000000000
H      -8.815939999999999     -2.410980000000000     -4.739460000000000
H     -10.117850000000001     -1.194420000000000     -5.043600000000000
H      -9.299230000000000     -1.278780000000000     -3.467990000000000
H     -10.313870000000000     -4.317630000000000     -5.395260000000000
H     -11.978300000000001     -4.458860000000000     -4.735200000000000
H     -11.560250000000000     -3.087330000000000     -5.817460000000000
Mg     -9.847849999999999     -3.205510000000000     -0.432350000000000
H     -11.326390000000000     -3.117580000000000      1.912210000000000
C     -12.713089999999999     -4.029440000000000      0.462260000000000
C     -11.585060000000000     -3.059860000000000      0.837740000000000
C     -12.430280000000000     -5.462490000000000      0.925960000000000
H     -13.645540000000000     -3.689430000000000      0.960130000000000
H     -12.878729999999999     -3.993420000000000     -0.635850000000000
H     -11.501139999999999     -5.849450000000000      0.481870000000000
H     -12.319400000000000     -5.464950000000000      2.031210000000000
C     -13.559580000000000     -6.412170000000000      0.535120000000000
H     -11.931600000000000     -2.029880000000000      0.603950000000000
H     -14.523590000000000     -6.073220000000000      0.969320000000000
H     -13.653460000000001     -6.465860000000000     -0.570960000000000
H     -13.335020000000000     -7.430100000000000      0.919300000000000
C      -9.005330000000001     -0.167290000000000      1.668420000000000
C      -9.468810000000000      0.170570000000000      0.418540000000000
C      -8.777020000000000     -0.599580000000000     -0.492650000000000
C      -7.932980000000000     -1.392690000000000      0.171490000000000
N      -8.020330000000000     -1.162510000000000      1.559120000000000
C      -7.070900000000000     -2.462540000000000     -0.445860000000000
N      -7.816000000000000     -3.742530000000000     -0.489320000000000
C      -7.363980000000000     -4.798640000000000      0.440940000000000
H     -10.246720000000000      0.891140000000000      0.199340000000000
H      -9.353440000000001      0.252340000000000      2.600210000000000
H      -8.933740000000000     -0.581450000000000     -1.549940000000000
H      -6.103420000000000     -2.514560000000000      0.090790000000000
H      -6.816510000000000     -2.162220000000000     -1.485600000000000
C      -7.386730000000000     -4.314290000000000      1.899410000000000
C      -8.320380000000000     -5.990110000000000      0.316430000000000
C      -5.948180000000000     -5.291720000000000      0.049520000000000
H      -8.407959999999999     -3.968850000000000      2.167730000000000
H      -7.099120000000000     -5.143900000000000      2.579250000000000
H      -6.671160000000000     -3.485490000000000      2.066790000000000
H      -8.347950000000001     -6.374680000000000     -0.719760000000000
H      -8.004410000000000     -6.826690000000000      0.973860000000000
H      -9.337020000000001     -5.681180000000000      0.610650000000000
H      -5.941510000000000     -5.701300000000000     -0.984480000000000
H      -5.187260000000000     -4.488820000000000      0.096450000000000
H      -5.617870000000000     -6.101080000000000      0.733610000000000
