140

Na     -0.182740000000000     -0.004680000000000      1.550940000000000
C       2.577760000000000      0.831640000000000      0.226670000000000
C       0.941450000000000      2.376580000000000     -0.443760000000000
O       1.220190000000000      1.027400000000000     -0.120220000000000
C       2.806490000000000      1.061820000000000      1.718850000000000
C       1.144830000000000      2.647240000000000     -1.933330000000000
H       2.839050000000000     -0.223170000000000     -0.003250000000000
H       3.266020000000000      1.459840000000000     -0.380760000000000
H      -0.124020000000000      2.571710000000000     -0.195470000000000
H       1.537110000000000      3.091390000000000      0.164520000000000
H       0.469290000000000      2.011210000000000     -2.543310000000000
H       0.914150000000000      3.712460000000000     -2.146120000000000
H       2.195070000000000      2.448570000000000     -2.229920000000000
H       2.184900000000000      0.364300000000000      2.319150000000000
H       3.875400000000000      0.882830000000000      1.958630000000000
H       2.554290000000000      2.104080000000000      2.000380000000000
C      -0.458640000000000      2.720010000000000      3.373130000000000
C      -1.847730000000000      0.982330000000000      4.238920000000000
O      -1.000990000000000      1.424930000000000      3.194290000000000
C       0.453250000000000      2.843340000000000      4.593410000000000
C      -3.100640000000000      1.838810000000000      4.415060000000000
H       0.172240000000000      2.918420000000000      2.481270000000000
H      -1.245840000000000      3.501210000000000      3.360420000000000
H      -2.192410000000000     -0.034060000000000      3.949830000000000
H      -1.295010000000000      0.850030000000000      5.192020000000000
H      -3.631840000000000      1.942670000000000      3.445410000000000
H      -3.777430000000000      1.349830000000000      5.146560000000000
H      -2.840380000000000      2.841400000000000      4.810070000000000
H       1.241240000000000      2.061390000000000      4.565140000000000
H       0.938040000000000      3.842250000000000      4.584930000000000
H      -0.128780000000000      2.756390000000000      5.532870000000000
Na      0.366610000000000     -0.334940000000000     -1.848430000000000
C      -1.133330000000000     -2.506610000000000      0.084290000000000
C      -2.575740000000000     -0.745840000000000     -0.479690000000000
O      -1.236840000000000     -1.138620000000000     -0.253600000000000
C       0.324550000000000     -2.937170000000000     -0.051300000000000
C      -3.339060000000000     -0.510180000000000      0.823490000000000
H      -1.438750000000000     -2.659860000000000      1.140980000000000
H      -1.735670000000000     -3.154660000000000     -0.591290000000000
H      -2.544120000000000      0.220050000000000     -1.028700000000000
H      -3.114790000000000     -1.458620000000000     -1.140780000000000
H      -2.828870000000000      0.261080000000000      1.436590000000000
H      -4.364250000000000     -0.153140000000000      0.589120000000000
H      -3.422010000000000     -1.447690000000000      1.408730000000000
H       0.976960000000000     -2.299580000000000      0.583460000000000
H       0.440050000000000     -3.994300000000000      0.268420000000000
H       0.657410000000000     -2.849090000000000     -1.106760000000000
C       0.086410000000000     -2.331080000000000     -4.458700000000000
C       2.325350000000000     -1.934870000000000     -3.985880000000000
O       0.996950000000000     -1.730130000000000     -3.570350000000000
C      -1.323550000000000     -2.047410000000000     -3.951830000000000
C       3.245330000000000     -1.288290000000000     -2.955990000000000
H       0.180620000000000     -1.897660000000000     -5.479740000000000
H       0.229540000000000     -3.434470000000000     -4.482210000000000
H       2.565760000000000     -3.020910000000000     -4.029050000000000
H       2.510600000000000     -1.449410000000000     -4.970210000000000
H       3.083710000000000     -1.753200000000000     -1.959780000000000
H       4.307880000000000     -1.424060000000000     -3.246090000000000
H       3.029790000000000     -0.200210000000000     -2.880250000000000
H      -1.504970000000000     -0.951200000000000     -3.916450000000000
H      -2.077510000000000     -2.516120000000000     -4.617500000000000
H      -1.447100000000000     -2.459530000000000     -2.929140000000000
Mg     -9.227770000000000     -7.824830000000000     -1.865360000000000
H      -8.043680000000000     -9.969300000000000     -3.937760000000000
C      -9.999739999999999     -9.174510000000000     -4.618540000000000
C      -9.012090000000001     -9.604979999999999     -3.545860000000000
C      -9.401009999999999     -8.086750000000000     -5.513970000000000
H     -10.264320000000000    -10.064320000000000     -5.224120000000000
H     -10.916950000000000     -8.783120000000000     -4.126110000000000
H      -9.140050000000000     -7.198470000000000     -4.905810000000000
H      -8.476850000000001     -8.470829999999999     -5.995760000000000
C     -10.388719999999999     -7.660520000000000     -6.595790000000000
H      -9.471750000000000    -10.316929999999999     -2.827500000000000
H     -10.691160000000000     -8.538349999999999     -7.204830000000000
H     -11.292450000000001     -7.205210000000000     -6.137270000000000
H      -9.914009999999999     -6.910160000000000     -7.262780000000000
C     -11.122490000000001     -5.795510000000000     -3.325520000000000
C     -11.169100000000000     -4.463610000000000     -3.699730000000000
C     -10.007940000000000     -3.881960000000000     -3.226160000000000
C      -9.314249999999999     -4.883490000000000     -2.584700000000000
N      -9.994460000000000     -6.038970000000000     -2.644940000000000
C      -8.006830000000001     -4.811280000000000     -1.899660000000000
N      -7.222930000000000     -6.003280000000000     -2.254190000000000
C      -6.185680000000000     -5.867210000000000     -3.276110000000000
H     -11.955019999999999     -3.978580000000000     -4.260730000000000
H     -11.867730000000000     -6.546090000000000     -3.560490000000000
H      -9.709270000000000     -2.845770000000000     -3.334370000000000
H      -8.250670000000000     -4.898550000000000     -0.832280000000000
H      -7.479550000000000     -3.844180000000000     -2.031500000000000
C      -4.936170000000000     -5.218660000000000     -2.653130000000000
C      -5.835210000000000     -7.283770000000000     -3.764690000000000
C      -6.694650000000000     -5.064510000000000     -4.480810000000000
H      -4.540590000000000     -5.845270000000000     -1.821650000000000
H      -4.139110000000000     -5.101520000000000     -3.416020000000000
H      -5.172110000000000     -4.217060000000000     -2.240380000000000
H      -6.723160000000000     -7.777230000000000     -4.209970000000000
H      -5.018610000000000     -7.258430000000000     -4.514340000000000
H      -5.501030000000000     -7.925080000000000     -2.938670000000000
H      -7.625290000000000     -5.527340000000000     -4.865660000000000
H      -6.915640000000000     -4.015030000000000     -4.205930000000000
H      -5.936790000000000     -5.062880000000000     -5.288210000000000
Mg     -6.895760000000000     -6.485880000000000      0.096810000000000
H      -6.079720000000000     -5.250210000000000      2.440670000000000
C      -6.175600000000000     -3.593310000000000      0.991080000000000
C      -5.899850000000000     -5.054840000000000      1.366290000000000
C      -7.558010000000000     -3.121800000000000      1.454580000000000
H      -5.416270000000000     -2.956790000000000      1.490480000000000
H      -6.060430000000000     -3.466810000000000     -0.106810000000000
H      -8.357920000000000     -3.732710000000000      1.010370000000000
H      -7.615880000000000     -3.216940000000000      2.559820000000000
C      -7.814990000000000     -1.668780000000000      1.064140000000000
H      -4.834460000000000     -5.269440000000000      1.132780000000000
H      -7.038940000000000     -1.003850000000000      1.498270000000000
H      -7.814690000000000     -1.560610000000000     -0.041910000000000
H      -8.808870000000001     -1.354240000000000      1.448370000000000
C      -4.685410000000000     -8.734529999999999      2.197870000000000
C      -4.160990000000000     -8.502340000000000      0.947950000000000
C      -5.174000000000000     -8.715790000000000      0.036820000000000
C      -6.283090000000000     -9.049310000000000      0.701050000000000
N      -6.040070000000000     -9.088910000000000      2.088670000000000
C      -7.640630000000000     -9.261250000000000      0.083650000000000
N      -8.377070000000000     -7.976620000000000      0.040080000000000
C      -9.517760000000001     -7.840690000000000      0.970380000000000
H      -3.147810000000000     -8.189800000000000      0.728620000000000
H      -4.147880000000000     -8.643540000000000      3.129660000000000
H      -5.079900000000000     -8.589750000000000     -1.020540000000000
H      -8.169409999999999    -10.073119999999999      0.620180000000000
H      -7.507580000000000     -9.631230000000000     -0.956220000000000
C      -9.086930000000001     -8.063499999999999      2.428860000000000
C     -10.071569999999999     -6.416950000000000      0.845930000000000
C     -10.652609999999999     -8.820410000000001      0.578890000000000
H      -8.277100000000001     -7.351980000000000      2.697320000000000
H      -9.949220000000000     -7.898090000000000      3.108720000000000
H      -8.726960000000000     -9.097640000000000      2.596110000000000
H     -10.390750000000001     -6.201070000000000     -0.190360000000000
H     -10.954090000000001     -6.272600000000000      1.503330000000000
H      -9.295669999999999     -5.690990000000000      1.140090000000000
H     -11.010719999999999     -8.621580000000000     -0.455120000000000
H     -10.337690000000000     -9.880789999999999      0.625910000000000
H     -11.518739999999999     -8.702090000000000      1.262970000000000
