95

Na     -2.014720000000000      1.197240000000000     -0.923150000000000
C      -0.586510000000000     -0.994400000000000      0.977870000000000
C       0.597980000000000      0.986220000000000      0.977630000000000
O      -0.001460000000000     -0.000090000000000      0.161950000000000
C      -1.226690000000000     -2.062240000000000      0.097890000000000
C       1.214430000000000      2.066820000000000      0.095960000000000
H       0.184310000000000     -1.493320000000000      1.608490000000000
H      -1.387930000000000     -0.557360000000000      1.614450000000000
H      -0.160440000000000      1.475080000000000      1.630820000000000
H       1.414170000000000      0.545140000000000      1.593760000000000
H       0.432110000000000      2.548870000000000     -0.528030000000000
H       1.691510000000000      2.844480000000000      0.730270000000000
H       1.988090000000000      1.627550000000000     -0.569030000000000
H      -0.461130000000000     -2.535800000000000     -0.552880000000000
H      -1.688410000000000     -2.848100000000000      0.733750000000000
H      -2.016510000000000     -1.612820000000000     -0.540750000000000
Na      2.013300000000000     -1.196560000000000     -0.928360000000000
Mg     -4.441240000000000     -7.823260000000000      5.569170000000000
H      -5.660940000000000     -8.508250000000000      2.680950000000000
C      -5.773600000000000    -10.253060000000000      4.046260000000000
C      -5.115110000000000     -8.990370000000000      3.513870000000000
C      -7.207310000000000     -9.975030000000000      4.505200000000000
H      -5.771940000000000    -11.012430000000000      3.238900000000000
H      -5.178720000000000    -10.633540000000000      4.905490000000000
H      -7.204730000000000     -9.217630000000000      5.313480000000000
H      -7.799560000000000     -9.581379999999999      3.651960000000000
C      -7.871420000000000    -11.243650000000001      5.031630000000000
H      -4.042770000000000     -9.156560000000001      3.275860000000000
H      -7.862700000000000    -12.032400000000001      4.250100000000000
H      -7.336960000000000    -11.615460000000001      5.931860000000000
H      -8.924890000000000    -11.028260000000000      5.309250000000000
C      -5.743200000000000     -9.626160000000000      7.782260000000000
C      -6.603710000000000     -9.530030000000000      8.862100000000000
C      -6.936980000000000     -8.193750000000000      8.981590000000001
C      -6.261650000000000     -7.541920000000000      7.973930000000000
N      -5.538490000000000     -8.411820000000001      7.253050000000000
C      -6.261980000000000     -6.101770000000000      7.641640000000000
N      -6.345240000000000     -5.956250000000000      6.181120000000000
C      -7.644220000000000     -5.629430000000000      5.594220000000000
H      -6.953250000000000    -10.343140000000000      9.482310000000000
H      -5.310350000000000    -10.540970000000000      7.396150000000000
H      -7.592370000000000     -7.751140000000000      9.722310000000000
H      -5.264370000000000     -5.751000000000000      7.938490000000000
H      -6.998080000000000     -5.504450000000000      8.217650000000001
C      -7.920430000000000     -4.125620000000000      5.770240000000000
C      -7.565640000000000     -5.960620000000000      4.093530000000000
C      -8.762200000000000     -6.482280000000000      6.208760000000000
H      -7.135120000000000     -3.519180000000000      5.264270000000000
H      -8.905849999999999     -3.859470000000000      5.335490000000000
H      -7.926480000000000     -3.845920000000000      6.843030000000000
H      -7.357190000000000     -7.038940000000000      3.939200000000000
H      -8.508690000000000     -5.694190000000000      3.574660000000000
H      -6.753940000000000     -5.409790000000000      3.600270000000000
H      -8.501379999999999     -7.555320000000000      6.114900000000000
H      -8.906260000000000     -6.251600000000000      7.282040000000000
H      -9.718090000000000     -6.299970000000000      5.680230000000000
Mg     -4.367580000000000     -4.557280000000000      6.208780000000000
H      -3.333630000000000     -2.338640000000000      7.512330000000000
C      -5.184230000000000     -2.775870000000000      8.626390000000001
C      -4.358000000000000     -2.718120000000000      7.335090000000000
C      -4.461510000000000     -3.527760000000000      9.749320000000001
H      -5.361920000000000     -1.736280000000000      8.973649999999999
H      -6.171350000000000     -3.238240000000000      8.411009999999999
H      -4.236290000000000     -4.563630000000000      9.455249999999999
H      -3.504380000000000     -3.008420000000000      9.968529999999999
C      -5.303440000000000     -3.581410000000000     11.021409999999999
H      -4.879410000000000     -2.035850000000000      6.629240000000000
H      -5.550540000000000     -2.556770000000000     11.370400000000000
H      -6.244190000000000     -4.144060000000000     10.838310000000000
H      -4.732180000000000     -4.100910000000000     11.820150000000000
C      -2.578980000000000     -2.212750000000000      3.833210000000000
C      -3.897870000000000     -2.397440000000000      3.490890000000000
C      -4.136880000000000     -3.755420000000000      3.515050000000000
C      -3.013160000000000     -4.380740000000000      3.873900000000000
N      -1.972390000000000     -3.454150000000000      4.084030000000000
C      -2.878630000000000     -5.860010000000000      4.124420000000000
N      -3.175900000000000     -6.156890000000000      5.545160000000000
C      -2.027530000000000     -6.548250000000000      6.389660000000000
H      -4.614940000000000     -1.617370000000000      3.268180000000000
H      -2.081010000000000     -1.258790000000000      3.916170000000000
H      -5.083440000000000     -4.211980000000000      3.318250000000000
H      -1.882540000000000     -6.204480000000000      3.784290000000000
H      -3.612430000000000     -6.399450000000000      3.486930000000000
C      -0.924760000000000     -5.477760000000000      6.374880000000000
C      -2.523460000000000     -6.706230000000000      7.831370000000000
C      -1.466310000000000     -7.919070000000000      5.934920000000000
H      -1.339540000000000     -4.502320000000000      6.707560000000000
H      -0.102620000000000     -5.770440000000000      7.061570000000000
H      -0.485640000000000     -5.356200000000000      5.365230000000000
H      -3.326760000000000     -7.463020000000000      7.897520000000000
H      -1.702280000000000     -7.032500000000000      8.502990000000000
H      -2.910090000000000     -5.740920000000000      8.197630000000000
H      -2.244920000000000     -8.710270000000000      6.003680000000000
H      -1.094920000000000     -7.904690000000000      4.892040000000000
H      -0.618900000000000     -8.224430000000000      6.583610000000000
