110

Na     -0.977430000000000     -2.147500000000000      0.764910000000000
C       1.294050000000000     -0.448440000000000     -0.795350000000000
C       0.719470000000000      0.580760000000000      1.189220000000000
O       0.218160000000000      0.008370000000000     -0.001560000000000
C       0.750060000000000     -1.056060000000000     -2.083690000000000
C      -0.445310000000000      1.063210000000000      2.046080000000000
H       1.964660000000000      0.395310000000000     -1.076340000000000
H       1.867960000000000     -1.240670000000000     -0.263110000000000
H       1.287460000000000     -0.171700000000000      1.782650000000000
H       1.361450000000000      1.462330000000000      0.963150000000000
H      -1.107230000000000      0.211820000000000      2.312110000000000
H      -0.060850000000000      1.520730000000000      2.981710000000000
H      -1.038150000000000      1.825650000000000      1.497540000000000
H       0.178710000000000     -0.296020000000000     -2.657950000000000
H       1.590430000000000     -1.419060000000000     -2.713460000000000
H       0.082280000000000     -1.913460000000000     -1.854120000000000
Na     -0.695210000000000      2.044750000000000     -1.318540000000000
Mg      6.743040000000000     -0.685030000000000      6.903720000000000
C       8.616910000000001     -0.129900000000000      8.696490000000001
C       8.923850000000000      1.307720000000000     10.507320000000000
O       7.985360000000000      0.596910000000000      9.733160000000000
C       9.336990000000000     -1.362920000000000      9.175970000000000
C       8.249990000000000      2.528950000000000     11.122109999999999
H       7.812470000000000      2.083980000000000      7.915320000000000
H       9.250970000000001      0.488700000000000      8.027540000000000
H       9.281720000000000      0.648130000000000     11.323919999999999
H       9.786659999999999      1.676210000000000      9.908920000000000
H       7.372150000000000      2.222170000000000     11.729440000000000
H       8.973630000000000      3.059210000000000     11.775940000000000
H       7.910600000000000      3.230670000000000     10.331440000000001
H       8.655709999999999     -1.975260000000000      9.789780000000000
H       9.663230000000000     -1.938990000000000      8.286360000000000
H      10.217770000000000     -1.064910000000000      9.774570000000001
H       8.021810000000000     -1.318090000000000      4.634320000000000
C       7.064420000000000     -3.255370000000000      4.903000000000000
C       7.764370000000000     -2.003490000000000      5.462920000000000
C       5.704970000000000     -2.957680000000000      4.256910000000000
H       7.733260000000000     -3.715250000000000      4.142510000000000
H       6.940940000000000     -3.988530000000000      5.714130000000000
H       5.032870000000000     -2.487500000000000      5.003980000000000
H       5.850990000000000     -2.267140000000000      3.402690000000000
C       5.028010000000000     -4.221670000000000      3.719400000000000
H       8.701829999999999     -2.330390000000000      5.961200000000000
H       5.670270000000000     -4.718040000000000      2.961480000000000
H       4.812260000000000     -4.939340000000000      4.537180000000000
H       4.064130000000000     -3.951150000000000      3.236510000000000
C       5.588360000000000      0.741010000000000      4.650060000000000
C       5.125350000000000      1.887660000000000      4.060100000000000
C       5.241830000000000      2.880890000000000      5.001530000000000
C       5.788510000000000      2.301280000000000      6.126310000000000
N       5.989330000000000      0.971950000000000      5.902620000000000
C       6.133610000000000      3.080700000000000      7.362730000000000
N       7.569230000000000      3.051870000000000      7.671880000000000
C       8.561830000000000      3.570330000000000      6.696130000000000
H       4.753960000000000      1.979050000000000      3.053180000000000
H       5.642600000000000     -0.223410000000000      4.183850000000000
H       4.979630000000000      3.921910000000000      4.874070000000000
H       5.803830000000000      4.136060000000000      7.266300000000000
H       5.572260000000000      2.685160000000000      8.231380000000000
C       8.150620000000000      4.958080000000000      6.176780000000000
C       9.907109999999999      3.699610000000000      7.437670000000000
C       8.785010000000000      2.600080000000000      5.508150000000000
H       7.984970000000000      5.650980000000000      7.029320000000000
H       8.937670000000001      5.378380000000000      5.516340000000000
H       7.215490000000000      4.895000000000000      5.584550000000000
H      10.239170000000000      2.711530000000000      7.819970000000000
H      10.700559999999999      4.080330000000000      6.758390000000000
H       9.816269999999999      4.392620000000000      8.300680000000000
H       9.044499999999999      1.581840000000000      5.870230000000000
H       7.909740000000000      2.523480000000000      4.845460000000000
H       9.611560000000001      2.959010000000000      4.860970000000000
Mg      3.941360000000000     -2.966340000000000      7.122430000000000
H       2.383490000000000     -3.146030000000000      5.001050000000000
C       1.512760000000000     -1.471120000000000      6.074320000000000
C       2.104920000000000     -2.861920000000000      6.036660000000000
C       2.559230000000000     -0.449110000000000      5.638200000000000
H       0.626410000000000     -1.434510000000000      5.407010000000000
H       1.182180000000000     -1.252760000000000      7.109280000000000
H       3.454350000000000     -0.545490000000000      6.282130000000000
H       2.873890000000000     -0.646220000000000      4.591160000000000
C       2.007660000000000      0.966710000000000      5.755960000000000
H       1.387320000000000     -3.609820000000000      6.435460000000000
H       1.124050000000000      1.087190000000000      5.097520000000000
H       1.718250000000000      1.183730000000000      6.806510000000000
H       2.777330000000000      1.699390000000000      5.452430000000000
C       3.794880000000000     -5.896260000000000      9.430980000000000
C       4.136440000000000     -6.168660000000000      8.126600000000000
C       5.094010000000000     -5.250210000000000      7.755000000000000
C       5.313990000000000     -4.431020000000000      8.789709999999999
N       4.532920000000000     -4.800230000000000      9.899490000000000
C       6.150900000000000     -3.186490000000000      8.747570000000000
N       5.294000000000000     -2.028870000000000      8.424500000000000
C       4.638260000000000     -1.250720000000000      9.506790000000001
H       3.702490000000000     -6.937250000000000      7.501400000000000
H       3.053600000000000     -6.423090000000000     10.010310000000000
H       5.512850000000000     -5.170710000000000      6.768050000000000
H       6.879730000000000     -3.282990000000000      7.916690000000000
H       6.765230000000000     -3.082870000000000      9.655490000000000
C       5.379240000000000     -1.334560000000000     10.857870000000000
C       4.620020000000000      0.231700000000000      9.088950000000001
C       3.192200000000000     -1.716040000000000      9.680050000000000
H       6.433360000000000     -1.012980000000000     10.746689999999999
H       4.900030000000000     -0.667270000000000     11.605219999999999
H       5.359270000000000     -2.365790000000000     11.262300000000000
H       4.143540000000000      0.387070000000000      8.105510000000001
H       4.067320000000000      0.852790000000000      9.827159999999999
H       5.652400000000000      0.615400000000000      9.021050000000001
H       2.633060000000000     -1.563090000000000      8.741720000000001
H       3.144540000000000     -2.784510000000000      9.943619999999999
H       2.689900000000000     -1.135830000000000     10.482110000000000
