140

Na      0.256790000000000     -1.462180000000000      0.506820000000000
C      -1.616390000000000     -0.842890000000000     -1.980730000000000
C       0.562930000000000     -0.158630000000000     -2.523900000000000
O      -0.406580000000000     -0.287930000000000     -1.501240000000000
C      -1.589220000000000     -2.368250000000000     -1.913790000000000
C       0.460840000000000      1.196560000000000     -3.221130000000000
H      -2.438490000000000     -0.483310000000000     -1.326040000000000
H      -1.865580000000000     -0.495700000000000     -3.007850000000000
H       1.565960000000000     -0.233860000000000     -2.051530000000000
H       0.508580000000000     -0.982490000000000     -3.268410000000000
H       0.622720000000000      2.022720000000000     -2.497170000000000
H       1.239240000000000      1.261260000000000     -4.010420000000000
H      -0.533790000000000      1.320990000000000     -3.696210000000000
H      -1.432040000000000     -2.707810000000000     -0.868240000000000
H      -2.558160000000000     -2.769690000000000     -2.277070000000000
H      -0.779450000000000     -2.776280000000000     -2.551770000000000
C       2.132510000000000     -3.646410000000000     -1.098670000000000
C       2.351120000000000     -3.917600000000000      1.262530000000000
O       1.841300000000000     -3.143760000000000      0.192150000000000
C       1.517310000000000     -5.017230000000000     -1.379250000000000
C       3.876640000000000     -4.001800000000000      1.283650000000000
H       1.673920000000000     -2.936910000000000     -1.819130000000000
H       3.220620000000000     -3.625170000000000     -1.312790000000000
H       2.046400000000000     -3.396420000000000      2.195730000000000
H       1.876580000000000     -4.919540000000000      1.312160000000000
H       4.315840000000000     -2.982650000000000      1.242910000000000
H       4.202370000000000     -4.497590000000000      2.221910000000000
H       4.250380000000000     -4.605990000000000      0.432650000000000
H       0.426060000000000     -4.995510000000000     -1.176110000000000
H       1.679180000000000     -5.277130000000000     -2.446540000000000
H       1.999290000000000     -5.802080000000000     -0.762220000000000
Na     -0.562810000000000      1.786400000000000     -0.380060000000000
C      -0.441800000000000      0.576600000000000      2.661950000000000
C       1.704650000000000      1.085250000000000      1.867960000000000
O       0.392810000000000      0.684470000000000      1.527160000000000
C      -1.893910000000000      0.510110000000000      2.198720000000000
C       2.541890000000000     -0.073050000000000      2.409900000000000
H      -0.214490000000000     -0.361080000000000      3.212040000000000
H      -0.349120000000000      1.455660000000000      3.338490000000000
H       2.190220000000000      1.441530000000000      0.933930000000000
H       1.709980000000000      1.949980000000000      2.566520000000000
H       2.587300000000000     -0.896900000000000      1.668170000000000
H       3.575660000000000      0.282000000000000      2.605930000000000
H       2.119890000000000     -0.456680000000000      3.360860000000000
H      -2.036810000000000     -0.338860000000000      1.496060000000000
H      -2.564880000000000      0.367290000000000      3.071910000000000
H      -2.178590000000000      1.451830000000000      1.684290000000000
C      -1.613680000000000      4.709630000000000      0.733700000000000
C      -3.209280000000000      3.763560000000000     -0.661690000000000
O      -1.974550000000000      3.574500000000000     -0.014780000000000
C      -0.261930000000000      4.435480000000000      1.382880000000000
C      -3.545140000000000      2.482950000000000     -1.417450000000000
H      -1.507280000000000      5.602630000000000      0.077590000000000
H      -2.353630000000000      4.898790000000000      1.543210000000000
H      -4.020710000000000      3.950730000000000      0.077050000000000
H      -3.145710000000000      4.595230000000000     -1.398720000000000
H      -3.615780000000000      1.631940000000000     -0.706490000000000
H      -4.514730000000000      2.589080000000000     -1.946730000000000
H      -2.750980000000000      2.259570000000000     -2.162760000000000
H       0.506090000000000      4.242660000000000      0.602700000000000
H       0.056960000000000      5.303530000000000      1.996020000000000
H      -0.332480000000000      3.543050000000000      2.038360000000000
Mg     -4.269230000000000    -12.175280000000001     -1.808030000000000
H      -1.675040000000000    -11.463360000000000     -0.741400000000000
C      -1.508970000000000    -13.414899999999999     -1.668510000000000
C      -2.300960000000000    -12.371370000000001     -0.903700000000000
C      -0.877280000000000    -12.897250000000000     -2.973550000000000
H      -0.694780000000000    -13.773199999999999     -1.009020000000000
H      -2.204170000000000    -14.244790000000000     -1.882130000000000
H      -1.645660000000000    -12.489400000000000     -3.664960000000000
H      -0.145240000000000    -12.094060000000001     -2.742790000000000
C      -0.122560000000000    -14.028910000000000     -3.671530000000000
H      -2.602910000000000    -12.750030000000001      0.088830000000000
H       0.653650000000000    -14.447730000000000     -2.995720000000000
H      -0.820170000000000    -14.840130000000000     -3.951100000000000
H       0.370560000000000    -13.660050000000000     -4.594850000000000
C      -1.361520000000000     -8.043369999999999     -5.055480000000000
C      -0.838990000000000     -9.206480000000001     -4.536320000000000
C      -0.886450000000000     -9.103780000000000     -3.157650000000000
C      -1.443130000000000     -7.926670000000000     -2.855290000000000
N      -1.765790000000000     -7.196190000000000     -4.009430000000000
C      -1.700460000000000     -7.427350000000000     -1.468330000000000
N      -2.559400000000000     -8.371119999999999     -0.752250000000000
C      -2.675170000000000     -8.229850000000001      0.720940000000000
H      -0.466570000000000    -10.044990000000000     -5.112600000000000
H      -1.467660000000000     -7.807610000000000     -6.102810000000000
H      -0.553280000000000     -9.843450000000001     -2.446780000000000
H      -0.723630000000000     -7.302230000000000     -0.967700000000000
H      -2.211290000000000     -6.443530000000000     -1.536530000000000
C      -3.226270000000000     -6.832440000000000      1.060600000000000
C      -3.659890000000000     -9.287850000000001      1.234310000000000
C      -1.321810000000000     -8.442990000000000      1.445150000000000
H      -4.189700000000000     -6.667480000000000      0.531900000000000
H      -3.397510000000000     -6.726970000000000      2.153140000000000
H      -2.513930000000000     -6.038590000000000      0.752310000000000
H      -3.283640000000000    -10.308750000000000      1.010320000000000
H      -3.791850000000000     -9.205349999999999      2.336560000000000
H      -4.648970000000000     -9.156630000000000      0.751300000000000
H      -0.921070000000000     -9.461510000000001      1.256920000000000
H      -0.557330000000000     -7.699780000000000      1.144770000000000
H      -1.452290000000000     -8.321709999999999      2.544430000000000
Mg     -3.111120000000000    -10.089729999999999     -1.830750000000000
H      -5.689460000000000    -10.811280000000000     -2.930390000000000
C      -4.678760000000000     -9.534250000000000     -4.360010000000000
C      -4.980020000000000     -9.951430000000000     -2.933230000000000
C      -4.213080000000000    -10.685890000000001     -5.269270000000000
H      -5.604920000000000     -9.106830000000000     -4.790890000000000
H      -3.902080000000000     -8.752409999999999     -4.303080000000000
H      -3.302610000000000    -11.180470000000000     -4.867680000000000
H      -5.020170000000000    -11.444480000000000     -5.355890000000000
C      -3.919780000000000    -10.155210000000000     -6.672680000000000
H      -5.451900000000000     -9.127610000000001     -2.369080000000000
H      -4.821040000000000     -9.658970000000000     -7.092340000000000
H      -3.095840000000000     -9.418380000000001     -6.639730000000000
H      -3.620740000000000    -10.982160000000000     -7.349770000000000
C      -3.387870000000000    -15.736920000000000     -3.852320000000000
C      -3.852350000000000    -14.607360000000000     -4.487800000000000
C      -4.878640000000000    -14.090109999999999     -3.717760000000000
C      -5.012020000000000    -14.869070000000001     -2.639580000000000
N      -4.102520000000000    -15.937900000000001     -2.659030000000000
C      -6.000080000000000    -14.651650000000000     -1.536630000000000
N      -5.795840000000000    -13.331390000000001     -0.939550000000000
C      -6.860530000000000    -12.792870000000001     -0.056020000000000
H      -3.471980000000000    -14.203930000000000     -5.418570000000000
H      -2.587420000000000    -16.373919999999998     -4.194750000000000
H      -5.460350000000000    -13.207490000000000     -3.932480000000000
H      -7.013540000000000    -14.756200000000000     -1.964770000000000
H      -5.842850000000000    -15.432700000000001     -0.763070000000000
C      -7.078730000000000    -13.752210000000000      1.128990000000000
C      -6.400210000000000    -11.434380000000001      0.486690000000000
C      -8.200910000000000    -12.580679999999999     -0.804200000000000
H      -6.117830000000000    -13.920460000000000      1.661210000000000
H      -7.815500000000000    -13.335279999999999      1.848370000000000
H      -7.465440000000000    -14.732740000000000      0.780480000000000
H      -6.243290000000000    -10.717440000000000     -0.347060000000000
H      -7.163540000000000    -11.001840000000000      1.171840000000000
H      -5.449800000000000    -11.547570000000000      1.045970000000000
H      -8.086010000000000    -11.855760000000000     -1.637620000000000
H      -8.615080000000001    -13.524450000000000     -1.209790000000000
H      -8.971320000000000    -12.183160000000001     -0.105160000000000
