95

Na      1.426130000000000      1.619570000000000     -1.317330000000000
C       0.849600000000000     -0.337510000000000      1.195500000000000
C       0.246050000000000     -1.350200000000000     -0.789120000000000
O       0.120600000000000     -0.181430000000000     -0.004950000000000
C       0.708200000000000      0.923740000000000      2.039970000000000
C      -0.530140000000000     -1.173080000000000     -2.089720000000000
H       0.453340000000000     -1.190930000000000      1.791940000000000
H       1.933290000000000     -0.481840000000000      0.982840000000000
H       1.311650000000000     -1.536810000000000     -1.054470000000000
H      -0.181410000000000     -2.229710000000000     -0.256230000000000
H      -0.127290000000000     -0.313160000000000     -2.666040000000000
H      -0.439640000000000     -2.089950000000000     -2.710860000000000
H      -1.605310000000000     -0.993670000000000     -1.876330000000000
H      -0.358710000000000      1.100810000000000      2.293770000000000
H       1.285180000000000      0.811980000000000      2.982050000000000
H       1.101300000000000      1.804230000000000      1.488990000000000
Na     -2.346920000000000     -0.223180000000000      0.763730000000000
Mg     -1.969300000000000     -6.477890000000000      6.840700000000000
H      -3.188970000000000     -7.162880000000000      3.952430000000000
C      -3.301620000000000     -8.907679999999999      5.317740000000000
C      -2.643130000000000     -7.645000000000000      4.785350000000000
C      -4.735340000000000     -8.629659999999999      5.776690000000000
H      -3.299960000000000     -9.667059999999999      4.510390000000000
H      -2.706740000000000     -9.288160000000000      6.176980000000000
H      -4.732750000000000     -7.872260000000000      6.584970000000000
H      -5.327580000000000     -8.236010000000000      4.923460000000000
C      -5.399440000000000     -9.898280000000000      6.303120000000000
H      -1.570790000000000     -7.811190000000000      4.547340000000000
H      -5.390720000000000    -10.687030000000000      5.521600000000000
H      -4.864980000000000    -10.270090000000000      7.203350000000000
H      -6.452910000000000     -9.682890000000000      6.580750000000000
C      -3.271230000000000     -8.280790000000000      9.053760000000000
C      -4.131740000000000     -8.184659999999999     10.133599999999999
C      -4.465010000000000     -6.848390000000000     10.253090000000000
C      -3.789680000000000     -6.196550000000000      9.245430000000001
N      -3.066530000000000     -7.066460000000000      8.524550000000000
C      -3.790000000000000     -4.756400000000000      8.913119999999999
N      -3.873270000000000     -4.610890000000000      7.452610000000000
C      -5.172240000000000     -4.284070000000000      6.865700000000000
H      -4.481270000000000     -8.997769999999999     10.753810000000000
H      -2.838380000000000     -9.195600000000001      8.667650000000000
H      -5.120400000000000     -6.405770000000000     10.993810000000000
H      -2.792400000000000     -4.405640000000000      9.209970000000000
H      -4.526110000000000     -4.159080000000000      9.489140000000001
C      -5.448450000000000     -2.780250000000000      7.041720000000000
C      -5.093670000000000     -4.615260000000000      5.365020000000000
C      -6.290220000000000     -5.136910000000000      7.480250000000000
H      -4.663140000000000     -2.173810000000000      6.535740000000000
H      -6.433860000000000     -2.514100000000000      6.606960000000000
H      -5.454490000000000     -2.500550000000000      8.114509999999999
H      -4.885220000000000     -5.693580000000000      5.210690000000000
H      -6.036710000000000     -4.348820000000000      4.846140000000000
H      -4.281970000000000     -4.064450000000000      4.871790000000000
H      -6.029400000000000     -6.209950000000000      7.386390000000000
H      -6.434290000000000     -4.906230000000000      8.553520000000001
H      -7.246110000000000     -4.954600000000000      6.951720000000000
Mg     -1.895680000000000     -3.211830000000000      7.480200000000000
H      -0.861670000000000     -0.993280000000000      8.783830000000000
C      -2.712260000000000     -1.430510000000000      9.897890000000000
C      -1.886040000000000     -1.372740000000000      8.606590000000001
C      -1.989550000000000     -2.182400000000000     11.020820000000001
H      -2.889960000000000     -0.390920000000000     10.245150000000001
H      -3.699390000000000     -1.892880000000000      9.682510000000001
H      -1.764320000000000     -3.218260000000000     10.726739999999999
H      -1.032410000000000     -1.663050000000000     11.240019999999999
C      -2.831470000000000     -2.236050000000000     12.292909999999999
H      -2.407450000000000     -0.690460000000000      7.900730000000000
H      -3.078560000000000     -1.211410000000000     12.641900000000000
H      -3.772210000000000     -2.798700000000000     12.109810000000000
H      -2.260200000000000     -2.755550000000000     13.091640000000000
C      -0.108220000000000     -0.867420000000000      5.104770000000000
C      -1.426670000000000     -1.052210000000000      4.761230000000000
C      -1.665480000000000     -2.410230000000000      4.785340000000000
C      -0.541930000000000     -3.035430000000000      5.145160000000000
N       0.498430000000000     -2.108660000000000      5.356160000000000
C      -0.407030000000000     -4.514680000000000      5.395860000000000
N      -0.704030000000000     -4.811490000000000      6.816670000000000
C       0.444380000000000     -5.202880000000000      7.661140000000000
H      -2.143370000000000     -0.271960000000000      4.537990000000000
H       0.389210000000000      0.086620000000000      5.188420000000000
H      -2.611830000000000     -2.866830000000000      4.588000000000000
H       0.589080000000000     -4.859060000000000      5.055640000000000
H      -1.140840000000000     -5.054290000000000      4.758580000000000
C       1.547160000000000     -4.132410000000000      7.646370000000000
C      -0.051510000000000     -5.360880000000000      9.102860000000000
C       1.005610000000000     -6.573690000000000      7.206380000000000
H       1.132400000000000     -3.156980000000000      7.979080000000000
H       2.369300000000000     -4.425110000000000      8.333060000000000
H       1.986250000000000     -4.010870000000000      6.636710000000000
H      -0.854800000000000     -6.117670000000000      9.169029999999999
H       0.769690000000000     -5.687150000000000      9.774470000000001
H      -0.438130000000000     -4.395570000000000      9.469139999999999
H       0.227020000000000     -7.364920000000000      7.275160000000000
H       1.377000000000000     -6.559290000000000      6.163500000000000
H       1.853030000000000     -6.879050000000000      7.855070000000000
