110

Na     -2.118510000000000      0.425500000000000     -1.318920000000000
C      -0.135890000000000      0.906390000000000      1.192340000000000
C       1.044440000000000      0.888060000000000     -0.790030000000000
O       0.092290000000000      0.196460000000000     -0.007680000000000
C      -1.150770000000000      0.151690000000000      2.043660000000000
C       1.280210000000000      0.127190000000000     -2.089820000000000
H       0.802810000000000      0.993770000000000      1.781630000000000
H      -0.554370000000000      1.916280000000000      0.980570000000000
H       0.674860000000000      1.904670000000000     -1.055620000000000
H       2.019490000000000      0.956530000000000     -0.255950000000000
H       0.334230000000000      0.046310000000000     -2.666260000000000
H       2.029530000000000      0.664090000000000     -2.710200000000000
H       1.662200000000000     -0.893530000000000     -1.875460000000000
H      -0.769370000000000     -0.861360000000000      2.292610000000000
H      -1.334380000000000      0.704130000000000      2.990180000000000
H      -2.112720000000000      0.052740000000000      1.497020000000000
Na      1.367500000000000     -1.922760000000000      0.763680000000000
Mg      1.127780000000000     -2.611400000000000      9.788060000000000
C      -1.269930000000000     -2.314430000000000     10.881650000000000
C      -2.219570000000000     -1.275840000000000     12.741650000000000
O      -1.165830000000000     -1.248910000000000     11.806649999999999
C      -2.350800000000000     -2.115980000000000      9.851570000000001
C      -1.762790000000000     -0.614060000000000     14.036590000000000
H       0.225300000000000     -2.881080000000000     12.779520000000000
H      -1.320000000000000     -3.320030000000000     11.349090000000000
H      -3.074060000000000     -0.701740000000000     12.329079999999999
H      -2.542840000000000     -2.309270000000000     12.998250000000001
H      -1.420310000000000      0.424220000000000     13.840980000000000
H      -2.609010000000000     -0.585720000000000     14.754530000000001
H      -0.929490000000000     -1.184990000000000     14.497439999999999
H      -2.231200000000000     -1.129490000000000      9.373690000000000
H      -2.253260000000000     -2.917340000000000      9.091300000000000
H      -3.340700000000000     -2.179970000000000     10.340330000000000
H       1.165210000000000     -5.053600000000000      8.683080000000000
C       1.447980000000000     -3.958500000000000      6.822260000000000
C       0.806860000000000     -4.119180000000000      8.212859999999999
C       2.969660000000000     -3.767950000000000      6.869490000000000
H       1.215890000000000     -4.868650000000000      6.226500000000000
H       0.979530000000000     -3.105230000000000      6.309280000000000
H       3.213600000000000     -2.868660000000000      7.471720000000000
H       3.434460000000000     -4.661310000000000      7.331850000000000
C       3.577630000000000     -3.599970000000000      5.474120000000000
H      -0.293430000000000     -4.186700000000000      8.075950000000001
H       3.359260000000000     -4.486710000000000      4.842210000000000
H       3.184740000000000     -2.692100000000000      4.972350000000000
H       4.680930000000000     -3.495340000000000      5.558890000000000
C       3.549280000000000     -4.033170000000000     10.536310000000000
C       4.460690000000000     -4.450530000000000     11.470300000000000
C       4.048880000000000     -3.929200000000000     12.672310000000000
C       2.889450000000000     -3.226100000000000     12.424910000000001
N       2.593850000000000     -3.286810000000000     11.095890000000001
C       2.091530000000000     -2.557730000000000     13.507379999999999
N       0.737200000000000     -3.110520000000000     13.640060000000000
C       0.536430000000000     -4.548170000000000     13.954739999999999
H       5.321120000000000     -5.071510000000000     11.285489999999999
H       3.572400000000000     -4.271450000000000      9.490790000000001
H       4.528360000000000     -4.067210000000000     13.631360000000001
H       2.612900000000000     -2.635160000000000     14.484109999999999
H       2.016950000000000     -1.470780000000000     13.309640000000000
C       1.412880000000000     -4.979710000000000     15.142300000000001
C      -0.944450000000000     -4.728440000000000     14.343109999999999
C       0.804230000000000     -5.463590000000000     12.732920000000000
H       1.224620000000000     -4.319120000000000     16.015529999999998
H       1.194930000000000     -6.029740000000000     15.429050000000000
H       2.488260000000000     -4.921170000000000     14.879020000000001
H      -1.607520000000000     -4.433150000000000     13.502950000000000
H      -1.165040000000000     -5.790340000000000     14.587270000000000
H      -1.199990000000000     -4.101460000000000     15.223390000000000
H       0.206140000000000     -5.138560000000000     11.854350000000000
H       1.865290000000000     -5.493340000000000     12.442449999999999
H       0.535100000000000     -6.514360000000000     12.965990000000000
Mg      2.893400000000000     -0.458850000000000      7.474640000000000
H       5.276390000000000     -1.264930000000000      6.681110000000000
C       5.735660000000000     -0.201070000000000      8.517630000000000
C       5.006730000000000     -0.321160000000000      7.198250000000000
C       5.297080000000000     -1.321120000000000      9.457390000000000
H       6.829440000000000     -0.247940000000000      8.334479999999999
H       5.497380000000000      0.782880000000000      8.968240000000000
H       4.197380000000000     -1.286990000000000      9.577710000000000
H       5.557780000000000     -2.309740000000000      9.022970000000001
C       5.956300000000000     -1.164970000000000     10.822889999999999
H       5.245870000000000      0.535580000000000      6.533320000000000
H       7.059740000000000     -1.224220000000000     10.723300000000000
H       5.676600000000000     -0.190960000000000     11.278670000000000
H       5.619150000000000     -1.970770000000000     11.500019999999999
C       1.233490000000000      2.000900000000000      5.211120000000000
C       1.599740000000000      0.802320000000000      4.644660000000000
C       1.177850000000000     -0.197020000000000      5.493340000000000
C       0.596080000000000      0.372160000000000      6.555120000000000
N       0.577870000000000      1.772880000000000      6.429170000000000
C       0.162360000000000     -0.350300000000000      7.796550000000000
N       1.259030000000000     -0.332080000000000      8.784660000000001
C       1.368700000000000      0.774680000000000      9.769650000000000
H       2.151990000000000      0.674650000000000      3.724210000000000
H       1.438150000000000      2.978000000000000      4.803590000000000
H       1.375010000000000     -1.243730000000000      5.348190000000000
H      -0.013540000000000     -1.414770000000000      7.538090000000000
H      -0.808940000000000      0.019750000000000      8.159710000000000
C       0.021220000000000      1.464320000000000     10.069630000000000
C       1.884700000000000      0.187510000000000     11.097000000000000
C       2.381650000000000      1.809670000000000      9.279350000000001
H      -0.728490000000000      0.725160000000000     10.413860000000000
H       0.143040000000000      2.220720000000000     10.873680000000000
H      -0.371420000000000      1.983120000000000      9.172960000000000
H       2.831480000000000     -0.366240000000000     10.973960000000000
H       2.063220000000000      0.986060000000000     11.849810000000000
H       1.141510000000000     -0.515300000000000     11.510920000000000
H       3.372080000000000      1.339210000000000      9.160290000000000
H       2.079850000000000      2.236500000000000      8.309659999999999
H       2.476950000000000      2.638560000000000     10.011600000000000
