95

Na     -2.013720000000000      1.196900000000000     -0.922620000000000
C      -0.585920000000000     -0.994400000000000      0.979310000000000
C       0.597570000000000      0.987190000000000      0.980660000000000
O      -0.002170000000000      0.001550000000000      0.164610000000000
C      -1.224810000000000     -2.061230000000000      0.096720000000000
C       1.214270000000000      2.067340000000000      0.098150000000000
H       0.185590000000000     -1.492930000000000      1.609400000000000
H      -1.388040000000000     -0.560010000000000      1.616880000000000
H      -0.160660000000000      1.475650000000000      1.634440000000000
H       1.413670000000000      0.545740000000000      1.596640000000000
H       0.432180000000000      2.549320000000000     -0.526290000000000
H       1.691880000000000      2.845260000000000      0.731600000000000
H       1.987560000000000      1.627740000000000     -0.567220000000000
H      -0.459090000000000     -2.533920000000000     -0.554430000000000
H      -1.686440000000000     -2.848330000000000      0.730810000000000
H      -2.014860000000000     -1.611720000000000     -0.541720000000000
Na      2.012190000000000     -1.195750000000000     -0.927670000000000
Mg      0.818140000000000      0.586610000000000      8.514189999999999
H       2.097670000000000     -0.270840000000000      6.231400000000000
C       0.007820000000000     -0.933290000000000      6.054280000000000
C       1.285150000000000     -0.699330000000000      6.849610000000000
C      -0.436390000000000      0.362070000000000      5.389250000000000
H       0.171360000000000     -1.708540000000000      5.278790000000000
H      -0.780270000000000     -1.293470000000000      6.747620000000000
H      -0.440120000000000      1.162780000000000      6.135110000000000
H       0.296320000000000      0.646460000000000      4.606300000000000
C      -1.835010000000000      0.233600000000000      4.793870000000000
H       1.626180000000000     -1.662450000000000      7.289070000000000
H      -1.860780000000000     -0.580280000000000      4.041630000000000
H      -2.576080000000000      0.011970000000000      5.593820000000000
H      -2.122200000000000      1.190070000000000      4.309290000000000
C      -4.244670000000000     -0.652300000000000     10.125030000000001
C      -3.809270000000000      0.200350000000000      9.135570000000000
C      -2.474240000000000     -0.088100000000000      8.908280000000000
C      -2.108690000000000     -1.069660000000000      9.730570000000000
N      -3.194530000000000     -1.495180000000000     10.521920000000000
C      -0.729650000000000     -1.655800000000000      9.840030000000000
N       0.154890000000000     -0.736690000000000     10.582000000000001
C       0.601850000000000     -1.198920000000000     11.912640000000000
H      -4.409480000000000      0.958950000000000      8.647259999999999
H      -5.240050000000000     -0.675700000000000     10.545410000000000
H      -1.830990000000000      0.390970000000000      8.194950000000000
H      -0.312950000000000     -1.853250000000000      8.837640000000000
H      -0.801340000000000     -2.651090000000000     10.306880000000000
C       1.613580000000000     -2.341830000000000     11.729300000000000
C       1.294720000000000     -0.037680000000000     12.655900000000001
C      -0.589200000000000     -1.617220000000000     12.799569999999999
H       2.469580000000000     -1.998440000000000     11.108930000000001
H       2.002740000000000     -2.682420000000000     12.709030000000000
H       1.156870000000000     -3.206970000000000     11.210229999999999
H       0.598800000000000      0.816040000000000     12.771540000000000
H       1.626120000000000     -0.353210000000000     13.666760000000000
H       2.199630000000000      0.321850000000000     12.152089999999999
H      -1.288120000000000     -0.762010000000000     12.917070000000001
H      -1.158660000000000     -2.471620000000000     12.394640000000001
H      -0.224790000000000     -1.916350000000000     13.804040000000001
Mg     -0.925990000000000      1.485260000000000     10.832910000000000
H      -3.091850000000000      2.758590000000000     11.908980000000000
C      -1.987100000000000      2.211020000000000     13.723070000000000
C      -2.444720000000000      1.943410000000000     12.286000000000000
C      -1.324220000000000      3.580260000000000     13.900359999999999
H      -2.903420000000000      2.211680000000000     14.349170000000001
H      -1.327640000000000      1.396320000000000     14.096230000000000
H      -1.991010000000000      4.359320000000000     13.471660000000000
H      -1.206900000000000      3.780370000000000     14.986290000000000
C       0.054470000000000      3.672340000000000     13.265700000000001
H      -3.041440000000000      1.005030000000000     12.294729999999999
H       0.751860000000000      2.954340000000000     13.745300000000000
H      -0.014140000000000      3.458230000000000     12.189660000000000
H       0.457990000000000      4.697760000000000     13.401940000000000
C       4.544090000000000      1.967590000000000      8.104600000000000
C       4.484160000000000      0.764470000000000      8.775390000000000
C       3.423210000000000      0.854220000000000      9.649740000000000
C       2.890370000000000      2.064910000000000      9.484920000000001
N       3.615290000000000      2.758920000000000      8.505210000000000
C       1.701300000000000      2.652640000000000     10.216110000000000
N       0.426080000000000      2.385120000000000      9.515180000000001
C      -0.184280000000000      3.530020000000000      8.776790000000000
H       5.136220000000000     -0.090690000000000      8.639630000000000
H       5.257110000000000      2.234210000000000      7.342860000000000
H       3.113980000000000      0.068760000000000     10.307110000000000
H       1.902060000000000      3.717990000000000     10.406680000000000
H       1.647090000000000      2.209860000000000     11.219889999999999
C       0.742630000000000      3.975170000000000      7.635230000000000
C      -1.549030000000000      3.138490000000000      8.176060000000000
C      -0.494510000000000      4.713120000000000      9.725199999999999
H       0.921560000000000      3.129320000000000      6.935060000000000
H       0.291520000000000      4.816070000000000      7.069670000000000
H       1.713910000000000      4.326400000000000      8.029710000000000
H      -2.261380000000000      2.809970000000000      8.961800000000000
H      -2.001920000000000      4.004820000000000      7.644990000000000
H      -1.468630000000000      2.353720000000000      7.428620000000000
H      -1.211610000000000      4.393440000000000     10.511659999999999
H       0.395120000000000      5.147310000000000     10.212490000000001
H      -0.968380000000000      5.542150000000000      9.158799999999999
