47
speciation9.ct
Na        -0.35560       -0.80649       -0.15401
C         -2.44448        0.92023       -1.01080
C         -2.36884        0.82960        1.29257
O         -1.59139        0.83638        0.11156
C         -1.64654        0.78646       -2.29879
C         -1.47798        0.83313        2.51760
H         -3.24540        0.14926       -0.98469
H         -2.91581        1.92788       -1.03745
H         -2.96576        1.76922        1.34348
H         -3.05724       -0.03938        1.33267
H         -0.76096        1.68224        2.47825
H         -2.09903        0.92867        3.43532
H         -0.94761       -0.12916        2.57293
H         -1.18212       -0.21440       -2.35984
H         -2.32323        0.90250       -3.17105
H         -0.85686        1.56550       -2.34402
C          1.90789       -0.79988        1.73496
C          2.40514       -0.79908       -0.54100
O          1.55406       -0.28077        0.46368
C          3.15705       -0.11214        2.30663
C          1.99239       -0.26234       -1.90118
H          1.10920       -0.55649        2.44936
H          2.03406       -1.90664        1.72644
H          3.44256       -0.43597       -0.38797
H          2.38789       -1.91016       -0.55710
H          1.99789        0.84930       -1.89464
H          2.70328       -0.62448       -2.67275
H          0.98605       -0.63183       -2.16099
H          3.01271        0.98921        2.33449
H          3.34510       -0.47226        3.33962
H          4.06278       -0.34135        1.71080
Na        -0.39901       -0.86000        0.04801
C         -2.30971       -2.83089       -1.03102
C         -0.48167       -3.78699        0.19068
O         -0.93864       -2.74769       -0.65322
C         -3.31771       -3.05092        0.10455
C         -0.40268       -5.11919       -0.56935
H         -2.56742       -1.89033       -1.54157
H         -2.43874       -3.59798       -1.82428
H          0.55417       -3.54466        0.50186
H         -1.08322       -3.88597        1.11731
H          0.25765       -5.01404       -1.45647
H          0.00731       -5.91270        0.09042
H         -1.40680       -5.45012       -0.90943
H         -3.19312       -2.28236        0.88970
H         -4.34961       -2.98659       -0.30481
H         -3.21242       -4.06282        0.54774
