62
speciation5.ct
Na         0.85568        0.11282        0.27835
C         -1.25331       -0.36561        2.68962
C          0.12569        1.45514        3.16192
O         -0.00492        0.27064        2.38080
C         -2.52477        0.50947        2.67052
C          1.49894        2.06272        3.05721
H         -1.38096       -1.20595        2.00648
H         -1.17994       -0.82296        3.70727
H         -0.59141        2.23598        2.82786
H         -0.03784        1.22838        4.24301
H          1.65884        2.37113        2.01619
H          1.54882        2.97173        3.69491
H          2.26657        1.33973        3.39446
H         -2.67439        0.97038        1.67472
H         -3.40470       -0.12538        2.91319
H         -2.50147        1.29899        3.45345
C          0.34750        1.46273       -2.41003
C          0.39152        3.04471       -0.63332
O          0.10186        1.69663       -1.01671
C          1.71587        1.89357       -2.95444
C         -0.53045        4.08809       -1.29962
H          0.29215        0.37773       -2.57110
H         -0.47344        1.89378       -3.02373
H          0.22600        3.14650        0.44636
H          1.45864        3.31649       -0.82289
H         -1.59848        3.91570       -1.01184
H         -0.25586        5.11508       -0.97054
H         -0.46617        4.08575       -2.40985
H          2.52765        1.43716       -2.35398
H          1.80944        1.54414       -4.00740
H          1.82652        2.99807       -2.97597
Na         1.13539       -1.05103        3.41500
C         -0.93064       -1.78141       -1.39937
C          0.71426       -3.15036       -0.36076
O          0.32340       -1.81320       -0.71613
C         -2.09225       -2.50858       -0.71771
C          1.04916       -4.02765       -1.58645
H         -1.23827       -0.72458       -1.46755
H         -0.80447       -2.13497       -2.45136
H          1.60805       -3.13218        0.27598
H         -0.02452       -3.64686        0.29549
H          1.84435       -3.56377       -2.20762
H          1.40555       -5.02613       -1.25169
H          0.15428       -4.20140       -2.22158
H         -2.22626       -2.13154        0.30858
H         -3.02598       -2.31496       -1.28334
H         -1.94600       -3.60733       -0.69604
C          3.68741       -1.04427        0.36345
C          3.80860        1.28224        0.77519
O          3.04937        0.21375        0.21762
C          3.93288       -1.49898        1.80801
C          5.16565        1.49749        0.09859
H          3.04679       -1.76315       -0.14475
H          4.61183       -1.11268       -0.23907
H          3.25459        2.22392        0.61058
H          3.94811        1.15139        1.86681
H          5.02428        1.72938       -0.97791
H          5.68636        2.34842        0.58660
H          5.83487        0.61928        0.20334
H          3.00564       -1.43447        2.39768
H          4.27920       -2.55439        1.81255
H          4.72423       -0.89061        2.29284
