17
speciation0.ct
Na         1.17475       -0.18858        0.11657
C          3.68536       -1.14934       -0.73605
C          3.74620       -0.00005        1.27000
O          3.20144       -0.02476       -0.03243
C          3.09931       -1.16223       -2.14005
C          3.16885        1.17835        2.04086
H          4.79538       -1.11148       -0.82121
H          3.38520       -2.09256       -0.22462
H          3.49721       -0.93402        1.82383
H          4.85250        0.11997        1.22536
H          2.06619        1.07798        2.12344
H          3.60318        1.20620        3.06256
H          3.41017        2.12993        1.52199
H          3.39321       -0.24071       -2.68554
H          3.47949       -2.04491       -2.69667
H          1.99139       -1.21916       -2.09194
Na         3.84802        1.64581       -1.00469
