32
speciation3.ct
Na        -0.01137        0.25234        0.12134
C         -2.60249        0.85738       -1.08315
C         -2.52697        1.00352        1.24682
O         -1.81462        1.22530        0.03438
C         -1.72068        0.57355       -2.28655
C         -1.55661        0.81500        2.40475
H         -3.23682       -0.03825       -0.91714
H         -3.24919        1.72773       -1.34617
H         -3.13405        1.90719        1.46850
H         -3.18010        0.09987        1.23131
H         -0.84621        1.66513        2.45534
H         -2.11710        0.75056        3.36104
H         -1.00927       -0.12780        2.27540
H         -1.13085       -0.34913       -2.11378
H         -2.35646        0.42146       -3.18614
H         -1.03555        1.42628       -2.46707
C          2.04142       -0.86568        1.78142
C          2.68594       -0.85534       -0.48626
O          1.62066       -0.94675        0.43314
C          2.27758       -2.26710        2.28961
C          2.16180       -0.44806       -1.85384
H          2.92532       -0.19529        1.93810
H          1.22499       -0.40699        2.37544
H          3.49468       -0.14713       -0.19321
H          3.09935       -1.88114       -0.60357
H          1.82959        0.60943       -1.83245
H          2.97309       -0.56029       -2.60570
H          1.31373       -1.10194       -2.14149
H          3.13107       -2.71836        1.74327
H          2.49928       -2.25833        3.37423
H          1.36774       -2.87368        2.10247
Na        -0.12746        0.06359        0.08825
