47
speciation2.ct
Na         0.59996       -0.11494       -0.44276
C          0.57185       -2.99230       -0.93441
C         -1.60319       -2.01680       -0.83616
O         -0.27684       -2.02550       -0.32298
C          0.72908       -2.84698       -2.45162
C         -2.35602       -3.34326       -0.64143
H          1.57915       -2.87972       -0.48764
H          0.24867       -4.01904       -0.67558
H         -2.16626       -1.23986       -0.27839
H         -1.62589       -1.70846       -1.90154
H         -2.38087       -3.62529        0.43242
H         -3.40005       -3.23751       -1.00245
H         -1.89635       -4.17075       -1.22374
H          1.11098       -1.83846       -2.70227
H          1.45216       -3.60904       -2.81658
H         -0.22677       -3.03308       -2.98446
C          0.03159        2.43430        1.04497
C         -1.60639        1.91244       -0.62163
O         -0.26524        1.77792       -0.18362
C         -0.91507        2.12397        2.21209
C         -1.93442        3.34139       -1.06890
H          1.04690        2.10425        1.34716
H          0.11310        3.52933        0.88710
H         -1.73285        1.26115       -1.51459
H         -2.33598        1.54111        0.12385
H         -1.25055        3.65749       -1.88460
H         -2.97956        3.38481       -1.44319
H         -1.84958        4.05777       -0.22539
H         -0.98097        1.02857        2.37460
H         -0.52485        2.60320        3.13498
H         -1.92759        2.54476        2.03687
Na        -0.44110       -2.63540        1.61483
C          3.40154       -0.75737        0.67501
C          3.47045        0.89489       -1.01348
O          2.68394       -0.06039       -0.32941
C          3.85212        0.12669        1.84303
C          2.64587        1.55177       -2.10700
H          2.72442       -1.53193        1.08845
H          4.26334       -1.30779        0.23441
H          3.80317        1.70868       -0.33542
H          4.33999        0.40010       -1.50221
H          1.78538        2.08862       -1.66057
H          3.27316        2.28923       -2.65190
H          2.27655        0.78787       -2.82202
H          2.98389        0.66625        2.27347
H          4.30944       -0.50879        2.63072
H          4.62471        0.85672        1.52523
